40

C     -2.249806   -2.810232    0.294207
C     -1.205484   -1.720801    0.301270
C      0.147611   -2.067272    0.263708
C      1.143215   -1.081316    0.200094
C      0.780911    0.282589    0.136328
C     -0.590103    0.641406    0.246375
C     -1.579072   -0.362736    0.302210
C     -3.053697    0.000386    0.322718
O     -3.811757   -0.987824    1.025826
C     -3.504204   -2.348419    0.968909
O     -4.294061   -3.187467    1.475611
C     -3.580376    0.150111   -1.112712
C     -5.014811    0.587275   -1.116089
O     -5.931100   -0.268645   -1.239495
N     -5.350146    1.963387   -0.939568
O     -1.002859    1.975099    0.334137
C      1.854502    1.285462   -0.115588
O      1.569843    2.407552   -0.613452
C      3.279129    0.924433    0.102298
C      3.627932   -0.436276    0.238314
C      2.573478   -1.473634    0.199725
O      2.893713   -2.694402    0.186631
C      4.976397   -0.797435    0.405302
C      5.969581    0.180189    0.444471
C      5.631368    1.526264    0.319681
C      4.293986    1.908713    0.150081
O      3.978084    3.263164    0.040115
H     -2.482417   -3.084729   -0.756131
H     -1.867744   -3.712444    0.820299
H      0.422587   -3.115290    0.277672
H     -3.195762    0.964469    0.857494
H     -2.974090    0.905722   -1.658282
H     -3.484303   -0.814771   -1.657105
H     -4.602238    2.681358   -0.815079
H     -6.349595    2.265254   -0.928428
H     -0.391443    2.736537    0.592999
H      5.263635   -1.836255    0.509736
H      7.005129   -0.106512    0.575367
H      6.411868    2.275653    0.356782
H      4.692098    3.981436    0.075458
