32

C      4.229707   -1.035132   -0.570392
C      3.069001   -1.217686    0.400424
O      2.041254   -0.264105    0.141259
C      1.146927   -0.366288   -0.930273
O      1.196311   -1.349763   -1.718689
C      0.102084    0.695021   -1.125764
C     -1.258177    0.383256   -0.421680
C     -2.205601    1.576889   -0.697173
C     -1.875733   -0.871610   -1.091840
C     -1.069846    0.136175    1.131540
C     -0.433734    1.324406    1.881483
C     -2.365090   -0.272290    1.863554
H      3.898100   -1.228053   -1.611865
H      5.043050   -1.747487   -0.317734
H      4.623371    0.000851   -0.499293
H      3.441534   -1.062525    1.434802
H      2.665113   -2.251161    0.330925
H      0.511291    1.666435   -0.777908
H     -0.061055    0.822995   -2.219187
H     -3.211331    1.411650   -0.260185
H     -2.343139    1.716812   -1.791546
H     -1.792270    2.524274   -0.294185
H     -1.839084   -0.789072   -2.199740
H     -2.943780   -0.995743   -0.814915
H     -1.329250   -1.791329   -0.793012
H     -0.374703   -0.722789    1.256750
H     -1.096989    2.213490    1.865481
H      0.554064    1.594140    1.460483
H     -0.259798    1.050497    2.944183
H     -2.791296   -1.204938    1.442919
H     -3.125334    0.534223    1.826763
H     -2.145596   -0.481142    2.932683
