14

C      0.909820   -0.708108   -0.198494
C      2.200162    0.040297   -0.054506
O      2.868012    0.345033   -1.077417
O      2.647592    0.441424    1.200639
N     -0.226485    0.210244   -0.147143
C     -1.575031   -0.262166   -0.249780
O     -1.810462   -1.492857   -0.388005
N     -2.661547    0.661050   -0.195794
H      0.900631   -1.255911   -1.165853
H      0.825598   -1.449616    0.624627
H      2.118124    0.227738    2.037442
H     -0.065386    1.237379   -0.034032
H     -3.646321    0.321927   -0.270123
H     -2.484710    1.683567   -0.081563
