32

C     -4.494196    0.776241   -0.431273
C     -3.172942   -0.002658   -0.459887
C     -3.059859   -0.929901    0.768171
C     -1.668201   -1.487407    0.897550
O     -1.508828   -2.533104    1.580761
C     -0.503031   -0.716412    0.375506
C      0.844999   -1.148026    0.495131
C      1.903909   -0.230615    0.252768
C      3.273179   -0.535903    0.507247
C      4.274799    0.339831    0.074035
C      3.952750    1.559127   -0.524474
C      2.617389    1.911384   -0.702334
C      1.592423    1.032640   -0.321833
C      0.261128    1.397862   -0.543543
C     -0.775112    0.537691   -0.198230
O     -2.095766    0.934318   -0.439214
O      4.955135    2.435585   -0.934679
O      3.690010   -1.658491    1.226618
O      1.145336   -2.485734    0.761997
O     -3.087448   -0.753606   -1.648283
H     -4.538601    1.428817    0.466907
H     -4.575248    1.416242   -1.335567
H     -5.359222    0.079148   -0.410018
H     -3.283946   -0.356146    1.693736
H     -3.795011   -1.761004    0.693008
H      5.313872    0.087444    0.246646
H      2.382394    2.867901   -1.155329
H      0.020616    2.356245   -0.989644
H      5.936347    2.211626   -0.816342
H      3.109986   -2.136330    1.901913
H      0.491286   -3.244583    0.630589
H     -3.848151   -1.392180   -1.661930
