13

C     -0.753130   -1.099776    0.072134
C     -1.856514   -0.270950    0.071377
N     -1.477203    1.003089   -0.136418
C     -0.138705    1.006004   -0.270062
C      0.343397   -0.284836   -0.145790
C      1.747982   -0.727444   -0.226556
O      2.023711   -1.948660   -0.091022
O      2.784915    0.175954   -0.450366
H     -0.752227   -2.172451    0.215203
H     -2.882278   -0.583843    0.215266
H     -2.105502    1.835376   -0.184928
H      0.443579    1.899907   -0.447326
H      2.621974    1.167630   -0.566489
