49

C      5.569384   -0.405547   -0.431022
C      4.729584    0.529978    0.448888
C      5.191237    0.476460    1.910360
C      3.242841    0.222417    0.330195
C      2.764730   -0.985019    0.660085
C      1.327009   -1.282333    0.582311
O      0.912439   -2.305307    1.183666
C      0.394760   -0.326778   -0.098109
C      0.854230    0.938426   -0.333228
C      2.288462    1.267046   -0.111821
O      2.696883    2.442274   -0.319129
C     -0.045053    2.066368   -0.846010
C     -1.573338    1.807732   -0.826485
C     -1.926765    0.524235   -0.053063
C     -1.039588   -0.676246   -0.563910
C     -1.630095   -2.041090   -0.063798
C     -2.389061   -1.919184    1.256239
C     -3.585087   -1.029756    1.030523
O     -4.661350   -1.341929    1.520578
C     -3.459740    0.231046    0.176053
C     -4.114754    1.405339    0.947122
C     -4.240361    0.020844   -1.138754
C     -0.974110   -0.789074   -2.117940
H      5.513474   -1.455133   -0.072816
H      5.209976   -0.363954   -1.481526
H      6.633545   -0.086725   -0.415847
H      4.927664    1.561852    0.087171
H      5.101977   -0.551343    2.321703
H      6.252680    0.795654    1.985936
H      4.576756    1.165567    2.528428
H      3.427965   -1.754599    1.035163
H      0.151768    2.967367   -0.224362
H      0.265996    2.322712   -1.881806
H     -2.064109    2.687222   -0.361397
H     -1.951276    1.747803   -1.868278
H     -1.568557    0.738584    0.984302
H     -0.894944   -2.863376   -0.047571
H     -2.369758   -2.422384   -0.803716
H     -2.719910   -2.928898    1.583915
H     -1.735221   -1.489657    2.044861
H     -3.552661    1.633724    1.878181
H     -4.162876    2.321013    0.322334
H     -5.161105    1.161457    1.232079
H     -3.967501   -0.932013   -1.630402
H     -5.331733   -0.034787   -0.934747
H     -4.075332    0.859248   -1.845510
H     -0.440677    0.056405   -2.596487
H     -0.419784   -1.708713   -2.406603
H     -1.978617   -0.843030   -2.575759
