14

C      1.382152   -0.135392   -1.544259
C      0.648156    0.174753   -0.477349
C     -0.673285   -0.421966   -0.121705
C     -1.081460    0.328366    1.176059
O     -0.022283    1.236930    1.468763
C      0.975106    1.158433    0.522903
O      2.019532    1.861482    0.548860
O     -0.526566   -1.795908    0.118371
H      1.039284   -0.886757   -2.243889
H      2.328420    0.357493   -1.727215
H     -1.405574   -0.234665   -0.940729
H     -2.022380    0.896590    1.015249
H     -1.216215   -0.371023    2.029144
H     -1.444886   -2.168337    0.175798
