16

C     -1.224603   -0.640594   -0.402634
C     -0.505116    0.547470    0.258339
C      0.986967    0.334677    0.267935
O      1.532029   -0.289009    1.219005
N      1.783859    0.787953   -0.830060
O      3.124432    0.594368   -0.834510
N     -1.000045    0.791784    1.616649
O     -0.969596   -1.828249    0.297314
H     -0.873548   -0.743176   -1.454402
H     -2.319901   -0.443374   -0.420940
H     -0.719179    1.454449   -0.349690
H      1.338890    1.287754   -1.632201
H      3.254056   -0.273719   -1.295271
H     -0.933402   -0.085190    2.183181
H     -2.012951    1.047513    1.561708
H     -1.461892   -2.542657   -0.184422
