27

C      0.735187    0.559813   -0.356681
C     -0.453784   -0.386772   -0.152794
C     -1.771209    0.395721   -0.059294
C     -2.974836   -0.540870    0.120753
C     -4.249931    0.251341    0.082461
O     -4.605162    0.932423    1.082091
O     -5.022062    0.263376   -1.074915
O     -2.871555   -1.218701    1.346445
C      2.051518   -0.221015   -0.448867
C      3.238433    0.724911   -0.652627
C      4.515967   -0.048731   -0.735789
O      4.936011   -0.456737   -1.851599
O      5.217126   -0.355285    0.426151
H      0.586290    1.141155   -1.293421
H      0.788825    1.271734    0.496499
H     -0.507821   -1.097593   -1.006765
H     -0.300955   -0.969031    0.782345
H     -1.905909    0.986852   -0.992742
H     -1.721006    1.104521    0.797246
H     -2.983849   -1.275457   -0.718405
H     -5.877820    0.803340   -1.122839
H     -3.500421   -1.986131    1.302977
H      1.998203   -0.933156   -1.302234
H      2.201215   -0.802362    0.488102
H      3.099829    1.310647   -1.587774
H      3.302461    1.438298    0.197475
H      6.075254   -0.892290    0.388533
