20

C      2.663100   -0.787352    0.721041
C      1.885485   -1.048498   -0.564254
C      0.702163   -0.130310   -0.664615
N      0.826121    1.053433   -1.323554
C     -0.208254    1.927407   -1.426254
C     -1.438870    1.629723   -0.838520
C     -1.601040    0.428117   -0.129132
C     -0.514809   -0.460387   -0.049159
C     -2.905352    0.109172    0.501166
O     -3.952468    0.677694    0.091734
O     -3.010551   -0.798266    1.554822
H      2.017978   -0.971835    1.606649
H      3.538274   -1.468847    0.771019
H      3.027242    0.262124    0.744689
H      2.556683   -0.889463   -1.435926
H      1.550494   -2.108395   -0.585627
H     -0.074533    2.857098   -1.963009
H     -2.251762    2.339957   -0.925976
H     -0.607052   -1.409477    0.461570
H     -2.202848   -1.211894    2.001823
