17

C     -2.252618   -0.358606   -0.369693
C     -1.644254    0.863885   -0.082866
C     -0.255554    0.945669    0.110107
C      0.537136   -0.225231   -0.023876
C     -0.097906   -1.451651   -0.293260
C     -1.482184   -1.516317   -0.465337
F     -2.076397   -2.704239   -0.737781
C      2.014925   -0.208194    0.067238
O      2.672892    0.796716   -0.313837
O      2.694346   -1.334728    0.523573
N      0.309309    2.206435    0.495478
H     -3.325133   -0.408650   -0.507457
H     -2.260777    1.749062    0.012415
H      0.482468   -2.360401   -0.397647
H      3.706104   -1.347619    0.572951
H      1.248080    2.279017    0.943051
H     -0.270438    3.074854    0.466942
