34

C      5.220797    1.372966    0.211765
C      3.931669    0.613125    0.059424
C      3.917288   -0.580989   -0.666790
C      2.726792   -1.269426   -0.894690
C      1.523227   -0.807612   -0.308629
C      1.522045    0.409285    0.419876
C      2.727252    1.150342    0.545240
O      2.762211    2.429775    1.109987
C      0.248023    0.844402    1.059189
O      0.253657    1.626489    2.047804
C     -1.037036    0.288313    0.579600
C     -1.037317   -0.887164   -0.196530
C      0.256789   -1.582809   -0.394982
O      0.287149   -2.839467   -0.482750
C     -2.264880   -1.389610   -0.694543
C     -3.465037   -0.762345   -0.343196
C     -3.466815    0.388468    0.462735
C     -2.251394    0.909900    0.910485
O     -4.649551    1.046714    0.832201
C     -5.956155    0.630397    0.448768
O     -2.333891   -2.482529   -1.561534
O      2.780529   -2.385588   -1.733270
H      5.243457    2.213566   -0.513005
H      6.099604    0.718372    0.028712
H      5.309798    1.776789    1.242514
H      4.834200   -0.960847   -1.101828
H      1.945411    3.010436    1.237212
H     -4.392152   -1.170633   -0.722500
H     -2.258529    1.807431    1.517044
H     -6.054176    0.650675   -0.657208
H     -6.701014    1.327642    0.883947
H     -6.159265   -0.391765    0.832421
H     -1.526378   -2.883325   -2.018620
H      1.963694   -2.820978   -2.138851
