27

C     -0.263742   -1.656484    2.305891
C     -0.215804   -1.009070    0.918652
C      1.202383   -0.520464    0.610486
O      1.226864    0.037532   -0.686867
C      2.526956    0.505564   -0.975619
C      2.540398    1.104425   -2.378851
O      3.811770    1.611694   -2.680635
O     -1.095220    0.103346    0.888964
C     -2.317564   -0.239349    0.269688
C     -3.273126    0.942159    0.364402
O     -4.486675    0.615604   -0.252958
H     -1.287215   -2.032532    2.514404
H      0.438975   -2.515530    2.356230
H      0.009036   -0.917458    3.089519
H     -0.463439   -1.791758    0.159434
H      1.493393    0.241061    1.371279
H      1.900946   -1.387130    0.671892
H      2.830111    1.297943   -0.253205
H      3.262738   -0.330516   -0.941576
H      1.805607    1.936008   -2.428724
H      2.240802    0.334846   -3.126564
H      4.385371    0.830617   -2.896864
H     -2.787413   -1.115048    0.773402
H     -2.150473   -0.473435   -0.806439
H     -2.819249    1.824234   -0.140625
H     -3.449734    1.187370    1.435721
H     -5.065696    1.416373   -0.161035
