47

C     -3.585882    0.700864    0.441564
C     -2.732964   -0.272732   -0.418399
C     -2.322785    0.480983   -1.735798
C     -1.256991    1.599807   -1.555357
C     -0.309782    1.303763   -0.375200
C     -0.144845   -0.214400   -0.189489
C     -1.450922   -0.840601    0.343720
N     -1.545846   -0.670825    1.747129
C     -1.613985   -0.539413    2.895761
C      1.069858   -0.266096    0.657613
C      1.805431    0.871659    0.524187
C      1.143559    1.897258   -0.346792
C      1.192604    3.285288    0.310514
C      1.820265    1.928046   -1.731603
N      3.120161    0.660809    0.757285
C      3.201170   -0.657812    1.040516
C      4.363031   -1.405909    1.225384
C      4.237425   -2.803587    1.334942
C      2.971773   -3.422206    1.221332
C      1.816159   -2.649757    1.005941
C      1.964935   -1.266499    0.952526
C     -3.635563   -1.438365   -0.816212
C     -4.138615   -2.303957    0.073894
H     -3.010582    1.592399    0.756187
H     -3.972844    0.205028    1.356331
H     -4.466360    1.057670   -0.135836
H     -3.219528    0.916163   -2.230436
H     -1.908335   -0.263451   -2.452899
H     -1.764239    2.572270   -1.374295
H     -0.699820    1.691771   -2.508899
H     -0.814285    1.689898    0.539433
H      0.113054   -0.683698   -1.167124
H     -1.355732   -1.932828    0.153349
H      2.240421    3.651417    0.365192
H      0.592701    4.008343   -0.282229
H      0.783507    3.250572    1.343476
H      1.732207    0.943443   -2.239009
H      1.361229    2.708378   -2.374514
H      2.899611    2.171476   -1.630421
H      3.909857    1.323434    0.590703
H      5.334411   -0.930057    1.262276
H      5.120505   -3.411366    1.483011
H      2.892848   -4.499671    1.284251
H      0.846617   -3.115830    0.888197
H     -3.890058   -1.588799   -1.862478
H     -4.775467   -3.116416   -0.260408
H     -3.917908   -2.216464    1.132684
