50

C      5.280809   -0.137032    1.624831
C      4.727694    0.328610    0.271966
C      5.472769   -0.342842   -0.888506
C      3.226372    0.082270    0.176749
C      2.319935    1.148466    0.000704
C      0.925388    0.895601   -0.111913
C      0.429219   -0.429822    0.063634
C      1.365988   -1.475275    0.198375
C      2.730781   -1.224220    0.256104
C     -1.078657   -0.765193   -0.013303
C     -1.482790   -1.700977    1.158580
C     -2.963504   -2.100216    1.142829
C     -3.922375   -1.024355    0.693861
O     -5.115974   -1.283838    0.765187
C     -3.500819    0.342942    0.150893
C     -1.931727    0.535378    0.168510
C     -1.424004    1.654791   -0.756922
C     -0.006269    2.062062   -0.369780
C     -4.105048    0.525911   -1.268570
C     -4.147113    1.411026    1.070078
C     -1.319192   -1.481463   -1.368912
O      2.826802    2.452829   -0.053241
H      6.352549    0.142008    1.713536
H      4.725043    0.354366    2.451944
H      5.194710   -1.238314    1.738428
H      4.948790    1.414592    0.200284
H      5.389226   -1.448878   -0.835209
H      5.055637    0.002921   -1.858518
H      6.549386   -0.070306   -0.857287
H      1.054095   -2.508323    0.238227
H      3.405234   -2.063388    0.367365
H     -1.255582   -1.202666    2.127758
H     -0.901953   -2.644768    1.150903
H     -3.095576   -2.980178    0.476416
H     -3.248048   -2.426601    2.166782
H     -1.690092    0.891820    1.199114
H     -2.064643    2.557022   -0.669604
H     -1.446220    1.339137   -1.820208
H     -0.049203    2.687914    0.548569
H      0.391979    2.684764   -1.199859
H     -5.194380    0.305574   -1.267897
H     -3.630902   -0.131591   -2.018816
H     -3.995789    1.572841   -1.621334
H     -3.871333    2.438238    0.753366
H     -3.820012    1.273170    2.123788
H     -5.256566    1.340627    1.046801
H     -2.362252   -1.827923   -1.486570
H     -0.687717   -2.391718   -1.444411
H     -1.057715   -0.829503   -2.226524
H      2.253051    3.284509   -0.091313
