36

C     -1.804857   -1.909820    0.501447
C     -3.095410   -2.741533    0.483655
C     -3.563800   -3.076418    1.865928
O     -2.963173   -3.956383    2.538991
O     -4.639851   -2.390713    2.422393
C     -2.007193   -0.492186    1.076943
C     -0.682014    0.212995    1.249968
O     -0.357431    0.631236    2.394598
N      0.195956    0.422494    0.131079
C      1.442893    1.186979    0.252911
C      2.497488    0.721014   -0.774755
C      2.177164    1.087971   -2.234402
C      3.234411    0.544528   -3.147731
O      3.073104   -0.576579   -3.696283
N      4.444790    1.268784   -3.363255
C      1.172951    2.666410    0.154421
O      0.207067    3.094246   -0.532676
O      2.015303    3.578208    0.785016
N     -2.908587    0.291616    0.229101
H     -1.032941   -2.447437    1.092746
H     -1.427099   -1.838361   -0.540481
H     -2.903501   -3.687311   -0.066708
H     -3.896723   -2.199009   -0.060233
H     -4.955511   -2.599061    3.360686
H     -2.476788   -0.587437    2.081757
H     -0.131561    0.132592   -0.816167
H      1.880039    0.989590    1.256213
H      3.473987    1.178419   -0.503003
H      2.611067   -0.381911   -0.688257
H      1.191658    0.677867   -2.540373
H      2.136744    2.191641   -2.352694
H      5.184225    0.884937   -3.993920
H      4.610787    2.182564   -2.885839
H      2.809379    3.266220    1.331631
H     -3.037490    1.235882    0.662234
H     -2.475085    0.437965   -0.711204
