18

C     -0.830240    2.133983    0.572010
C      0.507644    2.307225    0.225991
C      1.261915    1.220578   -0.217663
C      0.688319   -0.059906   -0.321489
C     -0.666122   -0.245674    0.076040
C     -1.413678    0.868765    0.498671
C     -1.316105   -1.575430    0.132117
O     -0.651725   -2.603684    0.431873
O     -2.686294   -1.688030   -0.088446
C      1.513442   -1.141347   -0.907605
O      0.988408   -2.031510   -1.629067
O      2.892121   -1.145596   -0.712740
H     -1.414382    2.980024    0.910625
H      0.959017    3.289029    0.289175
H      2.290831    1.389172   -0.511690
H     -2.446624    0.755644    0.804891
H     -3.149877   -2.587069   -0.033179
H      3.473348   -1.866174   -1.124050
