28

C     -3.874922    1.391399   -0.661098
C     -2.574009    0.987867   -0.016430
C     -2.088704   -0.248959   -0.263810
C     -0.784240   -0.776508    0.279135
C      0.376962   -0.422100   -0.656992
C      1.687539   -0.929819   -0.106297
C      2.268365   -0.294338    0.920548
O      3.484562   -0.744569    1.443757
C      4.130806   -0.121547    2.514356
O      3.640160    0.895863    3.073270
C      2.344945   -2.136331   -0.720043
C     -1.861514    1.959813    0.895032
H     -3.771703    1.356808   -1.766403
H     -4.681009    0.693463   -0.349941
H     -4.176204    2.419777   -0.372177
H     -2.651032   -0.913524   -0.915506
H     -0.598864   -0.396913    1.306053
H     -0.859259   -1.883371    0.350093
H      0.181145   -0.867164   -1.656780
H      0.440672    0.677653   -0.802604
H      1.787817    0.578942    1.348153
H      5.070537   -0.521318    2.869700
H      2.477515   -2.925146    0.050400
H      1.731664   -2.559041   -1.542953
H      3.337838   -1.856209   -1.131056
H     -0.835645    2.157715    0.523375
H     -2.393963    2.931884    0.948038
H     -1.809462    1.545672    1.923559
