25

C      3.705807   -1.559258    0.191393
C      2.568807   -0.612336   -0.019493
C      2.811096    0.691321   -0.463509
C      1.734261    1.558084   -0.653482
O      1.957288    2.732475   -1.053878
C      0.423637    1.104566   -0.394763
C     -0.722188    1.915631   -0.560779
C     -1.992166    1.390215   -0.282164
C     -2.146739    0.072643    0.158911
C     -1.008827   -0.735708    0.324718
C      0.265579   -0.229996    0.052127
O      1.324983   -1.017089    0.217704
O     -3.444209   -0.392859    0.420403
C     -3.751674   -1.707316    0.873447
O     -0.609159    3.235629   -0.999113
H      3.328134   -2.542572    0.542995
H      4.400046   -1.149042    0.954642
H      4.253893   -1.707019   -0.762841
H      3.823643    1.025773   -0.658215
H     -2.869863    2.011770   -0.409421
H     -1.100927   -1.758587    0.664768
H     -3.266215   -1.896531    1.854143
H     -4.850031   -1.800455    0.997077
H     -3.412994   -2.457239    0.127694
H     -1.422180    3.827900   -1.122366
