47

C      3.773656    1.712627   -1.903372
C      3.782639    0.411540   -1.090217
C      4.949152    0.392160   -0.094512
C      2.451986    0.194950   -0.378498
C      2.001687    1.135520    0.555227
C      0.760774    1.001938    1.179932
C     -0.076797   -0.102572    0.884362
C      0.459644   -1.154401    0.088234
C      1.666506   -0.946683   -0.630922
O      2.087276   -1.839543   -1.621920
C     -0.203074   -2.489153    0.108443
O      0.420388   -3.525494   -0.244890
C     -1.561663   -2.663469    0.705466
C     -2.329734   -1.337439    0.733095
C     -1.510765   -0.209212    1.465049
C     -2.329118    1.113698    1.285099
C     -2.439058    1.531535   -0.189886
C     -2.847243    0.362478   -1.031927
C     -2.736613   -0.909687   -0.668817
C     -3.256794   -1.810313   -1.764495
O     -3.607905   -0.902848   -2.806903
C     -3.362340    0.386863   -2.377632
O     -3.562841    1.415732   -3.073977
C     -1.415511   -0.523575    2.975917
O      0.382671    1.963455    2.115268
H      4.709171    1.795565   -2.497280
H      2.914010    1.715501   -2.608074
H      3.699264    2.602012   -1.242636
H      3.974339   -0.408216   -1.814672
H      5.914995    0.469276   -0.637904
H      4.946657   -0.562041    0.474589
H      4.881581    1.238054    0.621670
H      2.611818    1.998044    0.790149
H      1.468392   -2.497283   -2.076974
H     -2.129455   -3.429492    0.134468
H     -1.452139   -3.062103    1.735541
H     -3.276790   -1.517024    1.289637
H     -1.931706    1.958991    1.877277
H     -3.360356    0.954609    1.674833
H     -1.461298    1.914944   -0.551412
H     -3.190821    2.343284   -0.289755
H     -4.155147   -2.365558   -1.421529
H     -2.465277   -2.504334   -2.116881
H     -0.753037   -1.394420    3.163154
H     -2.419453   -0.744188    3.397945
H     -0.997342    0.337983    3.536965
H      0.975671    2.753284    2.342766
