50

C     -4.761468   -1.918534    0.267304
C     -4.319837   -0.744704   -0.568715
C     -3.107125   -0.201166   -0.325729
C     -2.545629    0.962803   -1.103221
N     -1.228444    1.328949   -0.588662
C     -1.056728    1.936148    0.697302
N     -2.057698    2.708042    1.218660
C     -1.918275    3.366146    2.409631
N     -0.757560    3.270607    3.118216
C      0.241725    2.507444    2.617374
C      0.129693    1.827758    1.442725
N      1.249607    1.086827    1.275260
C      2.007468    1.390210    2.364630
N      1.413579    2.258777    3.220244
C      1.598558    0.105585    0.234546
C      2.341987    0.811195   -0.945670
C      3.829259    0.399648   -1.018426
C      3.999226   -1.143128   -0.984301
C      2.860838   -1.817740   -0.169157
O      2.374297   -0.931411    0.821544
C      3.359236   -3.098102    0.514922
O      2.316669   -3.711298    1.224723
O      3.991214   -1.635726   -2.300621
O      4.569044    1.033378   -0.001378
O      1.717473    0.462332   -2.156447
C     -5.232378   -0.216184   -1.653505
O     -5.719794    1.044080   -1.286462
H     -4.046468   -2.759106    0.142150
H     -5.771550   -2.273930   -0.023398
H     -4.792772   -1.625007    1.337846
H     -2.493354   -0.627369    0.465538
H     -3.226164    1.837763   -1.035625
H     -2.449528    0.674959   -2.172128
H     -0.421098    1.284051   -1.242640
H     -2.732094    3.968063    2.789617
H      2.974635    0.952077    2.566434
H      0.655114   -0.358637   -0.126798
H      2.284074    1.918317   -0.812540
H      4.243830    0.776486   -1.979782
H      4.992452   -1.361210   -0.523160
H      2.036160   -2.117792   -0.860307
H      3.776713   -3.804865   -0.238056
H      4.170209   -2.846041    1.231567
H      1.744335   -4.166721    0.552915
H      4.399451   -2.540491   -2.273559
H      4.440310    0.529617    0.841378
H      1.964447    1.156741   -2.822362
H     -4.677010   -0.150768   -2.615255
H     -6.090425   -0.905687   -1.814002
H     -6.276203    1.357615   -2.046285
