23

C      3.345760   -0.231553    0.466763
C      1.885836    0.083384    0.281727
C      0.963652   -0.952247    0.057173
C     -0.414341   -0.646442   -0.116719
C     -1.376653   -1.656486   -0.344932
C     -2.722654   -1.337230   -0.512993
C     -3.140956   -0.013772   -0.458394
C     -2.218002    1.005687   -0.235095
C     -0.846318    0.715266   -0.060776
C      0.107985    1.739797    0.167525
C      1.451503    1.409824    0.334263
O     -0.220507    3.097922    0.238247
O      1.462471   -2.261063    0.015623
H      3.948404    0.686525    0.634311
H      3.476323   -0.897621    1.345606
H      3.735969   -0.742410   -0.438678
H     -1.121891   -2.701530   -0.399058
H     -3.446666   -2.123156   -0.686962
H     -4.188676    0.225099   -0.590056
H     -2.607287    2.009796   -0.204150
H      2.165948    2.205925    0.507721
H     -1.150429    3.475554    0.135909
H      0.910529   -3.091269   -0.137057
