25

C     -2.647378   -0.804153    0.314985
C     -1.195738   -0.428438    0.093603
C     -0.831677    0.928180   -0.101839
C      0.529594    1.293518   -0.127896
C      1.533919    0.310254    0.018292
C      1.168387   -1.054523    0.016487
C     -0.188791   -1.428410    0.058804
C     -0.511292   -2.878535    0.044742
O     -1.570040   -3.313664   -0.480499
O      2.136371   -2.064753   -0.051720
C      2.984760    0.712433    0.146437
O      0.857614    2.642901   -0.308026
C     -1.888404    2.003706   -0.236606
H     -2.733800   -1.669615    1.004085
H     -3.125586   -1.047151   -0.656831
H     -3.215222    0.011462    0.806904
H      0.196094   -3.594202    0.443214
H      3.113831   -1.896423   -0.249029
H      3.553718   -0.012004    0.763532
H      3.090958    1.674764    0.686867
H      3.445188    0.792653   -0.860300
H      1.793970    2.976057   -0.494635
H     -1.502997    2.909177   -0.748907
H     -2.254514    2.294572    0.770178
H     -2.738967    1.642195   -0.851845
