47

C      6.980791    0.198433    0.805476
C      5.975354   -0.563440   -0.053172
C      4.552416   -0.417748    0.498604
C      3.543916   -1.176644   -0.376618
C      2.125275   -1.173584    0.214372
C      1.466172    0.216532    0.165305
C     -0.013210    0.171426    0.591817
C     -0.968202   -0.324704   -0.530994
C     -1.730644    0.809103   -1.323721
C     -2.845928    1.470541   -0.445777
C     -3.600052    0.414256    0.313093
C     -3.142690   -0.799572    0.530166
O     -1.913058   -1.240761    0.040136
O     -4.027741   -1.580418    1.266535
C     -5.191392   -0.820725    1.599829
C     -4.890888    0.501214    0.965270
O     -5.625487    1.523379    1.005345
C     -6.437245   -1.465607    1.000650
O     -2.307736    2.399986    0.459066
C     -0.769834    1.887280   -1.874214
O     -2.388403    0.210754   -2.419833
H      6.733052    1.281243    0.820843
H      8.000142    0.073555    0.383228
H      6.976262   -0.194004    1.844733
H      6.016790   -0.168161   -1.091664
H      6.262261   -1.637498   -0.073451
H      4.287205    0.660793    0.524826
H      4.518424   -0.818496    1.535658
H      3.873488   -2.234911   -0.468950
H      3.525959   -0.739755   -1.399273
H      1.514782   -1.895521   -0.368243
H      2.156054   -1.538268    1.264537
H      2.001748    0.891222    0.866561
H      1.561050    0.647972   -0.852859
H     -0.304616    1.176111    0.948905
H     -0.102888   -0.490592    1.481568
H     -0.370437   -0.906819   -1.264296
H     -3.559941    1.994087   -1.124747
H     -5.281888   -0.717185    2.702340
H     -7.331140   -0.844258    1.221065
H     -6.585769   -2.471951    1.445538
H     -6.329737   -1.573010   -0.100325
H     -3.057453    2.974461    0.765797
H     -0.004377    1.424575   -2.532646
H     -0.248681    2.432687   -1.060904
H     -1.337827    2.628201   -2.476586
H     -1.703879   -0.194177   -3.015092
