44

C     -1.824169    0.297647    2.119774
C     -2.370536   -0.876073    1.283719
C     -2.953872   -0.476192   -0.099595
C     -1.851252   -0.279786   -1.159632
C     -0.865480   -1.457371   -1.137377
C     -0.378918   -1.763328    0.301786
O     -1.456799   -1.965580    1.206751
O      0.498418   -0.745498    0.793727
C      1.819002   -0.514827    0.376579
C      2.503629   -1.369365   -0.509386
C      3.826803   -1.096757   -0.870032
C      4.487503    0.038784   -0.370379
C      3.801173    0.885781    0.523584
C      2.480713    0.607073    0.889304
C      5.898838    0.271071   -0.770530
C      6.526448    1.450208   -0.656111
N      7.838647    1.575052   -1.068417
C      8.937727    1.681090   -1.414177
O     -1.431589   -2.597841   -1.738378
O     -1.150347    0.919453   -0.933015
N     -3.811821    0.713970   -0.000622
C     -5.107515    0.681736    0.616012
O     -5.584712   -0.404051    1.050087
C     -5.924912    1.931632    0.694682
H     -1.303122   -0.091624    3.020022
H     -2.662512    0.942377    2.462708
H     -1.122299    0.934180    1.547126
H     -3.231235   -1.261288    1.873542
H     -3.588928   -1.320780   -0.451793
H     -2.348431   -0.246618   -2.160295
H      0.009976   -1.173447   -1.759052
H      0.181626   -2.722153    0.277490
H      2.033885   -2.254732   -0.918237
H      4.338914   -1.780395   -1.541288
H      4.283212    1.743497    0.970995
H      1.972712    1.258345    1.588903
H      6.440532   -0.560037   -1.215705
H      6.023497    2.330752   -0.273672
H     -2.101563   -2.980344   -1.112955
H     -0.940909    1.312585   -1.827834
H     -3.508439    1.612436   -0.438346
H     -5.272439    2.784546    1.007005
H     -6.750932    1.814877    1.443113
H     -6.360522    2.150995   -0.310822
