27

C     -2.458559   -0.021705    1.020302
C     -1.121652   -0.114653    0.242469
C     -0.132841   -1.105230    0.907903
C      0.394086    0.058083    1.764500
C     -0.128065    0.993400    0.661159
C      1.006875    1.075366   -0.357255
C      1.378136    2.246948   -0.887604
C      1.750342   -0.233109   -0.686129
C      1.016723   -1.495079   -0.076570
O      1.891150   -0.372720   -2.076263
C     -1.446432   -0.282426   -1.265903
H     -2.317634    0.089758    2.114652
H     -3.043517    0.853808    0.666074
H     -3.059543   -0.940574    0.850907
H     -0.585033   -1.948754    1.473520
H      1.493072    0.073151    1.950257
H     -0.162921    0.172154    2.719857
H     -0.565023    1.954349    1.012207
H      0.858480    3.163649   -0.626987
H      2.206660    2.300428   -1.586812
H      2.762677   -0.153168   -0.225991
H      1.758573   -2.115563    0.471168
H      0.600770   -2.137966   -0.882044
H      2.564438   -1.087484   -2.222806
H     -2.091019    0.556663   -1.603655
H     -1.998702   -1.233108   -1.422754
H     -0.571043   -0.296217   -1.934202
