12

C     -0.526531   -0.888729    0.177789
C     -1.767639   -0.499228    0.638113
O     -1.834711    0.812174    0.684416
C     -0.692040    1.312899    0.274871
C      0.166567    0.282650   -0.056217
C      1.545605    0.424312   -0.558165
O      2.034788    1.573601   -0.717972
O      2.326427   -0.688828   -0.862180
H     -0.184239   -1.904553    0.035746
H     -2.574214   -1.161808    0.922062
H     -0.477286    2.371820    0.213919
H      1.983273   -1.634311   -0.752384
