20

C     -2.496853   -0.353347    0.949386
C     -1.769754   -0.563247   -0.385201
C     -0.288958   -0.259060   -0.268494
C      0.657589   -1.284046   -0.446861
C      2.024914   -1.013280   -0.337478
C      2.465582    0.281105   -0.047608
C      1.530995    1.308343    0.133983
C      0.162938    1.041549    0.025239
O      3.831037    0.535689    0.058350
O     -2.357201    0.196130   -1.412912
H     -2.434579    0.705877    1.277153
H     -3.567651   -0.626727    0.839318
H     -2.046850   -0.999271    1.733378
H     -1.904518   -1.633225   -0.656368
H      0.339822   -2.294809   -0.670523
H      2.743145   -1.811149   -0.477726
H      1.863278    2.313483    0.360486
H     -0.540194    1.850616    0.174202
H      4.182024    1.463009    0.267593
H     -2.394768    1.142360   -1.115917
