23

C     -1.774516   -0.655590    0.367420
C     -0.743974   -1.633761   -0.200732
N      0.056735   -0.996598   -1.255988
C      0.780348    0.207078   -0.793909
C     -0.201691    1.243097   -0.189925
C     -1.088332    0.606622    0.900524
O     -2.068379    1.518668    1.323497
O     -1.020109    1.766681   -1.206347
C      1.949056   -0.121271    0.162728
O      2.868709   -0.966102   -0.472667
H     -2.502724   -0.384912   -0.428803
H     -2.333665   -1.149916    1.191235
H     -1.286844   -2.499576   -0.637420
H     -0.095481   -2.031352    0.609088
H      0.738242   -1.698224   -1.627882
H      1.240863    0.681016   -1.689600
H      0.377156    2.074493    0.277736
H     -0.458235    0.319343    1.774012
H     -1.604743    2.201100    1.876103
H     -0.472556    2.426876   -1.706634
H      1.586574   -0.597752    1.097627
H      2.463118    0.825590    0.442715
H      3.590450   -1.135510    0.187221
