13

C     -1.362046   -0.243176    0.499368
C     -0.377401    0.299289   -0.544211
C      0.997096   -0.380538   -0.448626
O      1.578721   -0.148805    0.805406
O     -0.255506    1.696149   -0.441167
H     -0.996370   -0.044757    1.529320
H     -2.350051    0.247941    0.372567
H     -1.494105   -1.338342    0.368246
H     -0.795029    0.071178   -1.548865
H      0.880442   -1.475517   -0.612672
H      1.657560    0.024467   -1.247740
H      2.455110   -0.614211    0.792385
H      0.061577    1.906322    0.475992
