49

C     -5.609475    2.144710   -0.196569
C     -4.143327    2.214221    0.143603
C     -3.725354    3.106589    1.054062
C     -3.160369    1.241347   -0.481982
C     -3.320832   -0.149712    0.152357
C     -2.252696   -1.106657   -0.341110
C     -0.945473   -1.102909    0.209863
C      0.031907   -1.996399   -0.281820
C     -0.291761   -2.899854   -1.312218
C     -1.584036   -2.887732   -1.859484
C     -2.553039   -1.996130   -1.391843
O     -3.821234   -1.994564   -1.975140
O      0.698137   -3.780793   -1.782242
C      0.507281   -4.737643   -2.819480
C      1.401644   -1.996147    0.284695
O      1.931299   -3.091797    0.617871
C      2.154821   -0.732004    0.429759
C      3.362680   -0.681786    1.009045
C      4.149091    0.566737    1.162513
C      5.537496    0.468499    1.355420
C      6.316728    1.618181    1.514837
C      5.716860    2.883176    1.495317
C      4.334637    2.991325    1.320436
C      3.551525    1.843930    1.159793
O      6.483141    4.035812    1.652675
O     -0.593382   -0.238010    1.253241
O     -3.382306    1.156749   -1.866279
H     -5.939660    3.110994   -0.632932
H     -5.814254    1.338836   -0.932028
H     -6.199765    1.937378    0.721089
H     -4.426255    3.790654    1.523492
H     -2.680984    3.164254    1.345563
H     -2.115419    1.590845   -0.306827
H     -3.287452   -0.080097    1.259965
H     -4.335222   -0.543509   -0.073430
H     -1.847532   -3.564597   -2.660574
H     -4.061522   -2.623267   -2.732716
H      1.453357   -5.295017   -2.976233
H      0.236233   -4.225311   -3.766667
H     -0.286499   -5.459169   -2.532347
H      1.710511    0.163572    0.018016
H      3.817988   -1.602367    1.355889
H      6.021617   -0.500526    1.373925
H      7.386161    1.524194    1.654579
H      3.864673    3.966695    1.316601
H      2.481972    1.965369    1.059564
H      7.487099    3.990465    1.782692
H     -1.206200    0.465189    1.641669
H     -3.052810    2.006277   -2.261176
