42

C      0.671765   -1.249718    3.164156
O      0.801084   -0.052457    2.401232
C      0.410612    0.025550    1.059062
C     -0.950152   -0.061669    0.694185
C     -1.319431   -0.056922   -0.665990
C     -0.326474    0.102356   -1.657131
C      1.006405    0.277698   -1.281850
C      1.386190    0.235035    0.065344
C      2.809048    0.425350    0.417609
C      3.456482    1.628174    0.094365
C      4.804909    1.818938    0.417324
C      5.520372    0.795551    1.062521
C      4.878333   -0.410933    1.373762
C      3.532104   -0.596882    1.049678
O      6.863288    0.979066    1.388122
O      5.415377    3.029150    0.089810
O     -0.629762    0.081302   -3.020427
C     -2.749409   -0.163521   -1.030936
C     -3.473517   -1.323791   -0.716349
C     -4.830388   -1.424722   -1.044382
C     -5.475171   -0.354675   -1.688930
C     -4.754133    0.807506   -1.996766
C     -3.399967    0.904503   -1.667085
O     -6.826171   -0.449034   -2.019098
O     -5.520013   -2.593156   -0.722366
O     -1.952198   -0.094273    1.667356
H     -0.383493   -1.581772    3.221039
H      1.044761   -1.066593    4.192460
H      1.273019   -2.061018    2.705890
H      1.756996    0.419979   -2.050617
H      2.910770    2.422367   -0.401159
H      5.424220   -1.208431    1.861628
H      3.061620   -1.544629    1.272596
H      7.400294    0.255926    1.852437
H      6.388095    3.215815    0.301973
H     -1.556697   -0.113162   -3.376688
H     -2.982211   -2.152336   -0.220192
H     -5.243536    1.637748   -2.489867
H     -2.858092    1.811805   -1.904840
H     -7.313089    0.308716   -2.483448
H     -6.502150   -2.715039   -0.938195
H     -1.769690    0.092198    2.644954
