12

C     -1.342606    0.553275   -0.014076
C     -0.348221   -0.563051   -0.326312
C      0.967339   -0.382768    0.432013
O      1.620782    0.776966   -0.004754
H     -0.934225    1.537078   -0.328563
H     -1.565561    0.578779    1.073885
H     -2.289036    0.371518   -0.565588
H     -0.147549   -0.584133   -1.419510
H     -0.800152   -1.537133   -0.039380
H      1.614659   -1.267473    0.240857
H      0.767472   -0.320664    1.525507
H      2.457095    0.837605    0.526070
