34

C      6.754746    0.407624    1.158502
C      5.464465    0.533414    0.413638
C      4.353712   -0.060506    0.865494
C      3.034591    0.027506    0.193013
C      1.877730   -0.282197    0.944468
C      0.640515   -0.210725    0.310284
C      0.519113    0.143696   -1.002612
C      1.628714    0.444749   -1.784263
C      2.898150    0.380136   -1.180851
O     -0.740110    0.148823   -1.362186
C     -1.461786   -0.201938   -0.310220
C     -0.629158   -0.438448    0.787073
C     -2.941523   -0.284748   -0.340261
C     -3.673796   -1.116660    0.537503
C     -5.075444   -1.139673    0.470885
C     -5.754915   -0.362367   -0.470008
C     -5.032392    0.444437   -1.354917
C     -3.637536    0.479617   -1.293288
O     -7.146549   -0.402300   -0.519740
O     -3.019848   -1.937354    1.455265
H      6.641402    0.813740    2.185963
H      7.548966    0.978658    0.633506
H      7.057691   -0.659369    1.213854
H      5.455269    1.138220   -0.482293
H      4.407314   -0.608381    1.800174
H      1.940930   -0.562522    1.989080
H      1.519261    0.713909   -2.826752
H      3.762266    0.584617   -1.796515
H     -0.902454   -0.701243    1.799566
H     -5.638851   -1.772366    1.145397
H     -5.550582    1.047132   -2.089980
H     -3.101127    1.118672   -1.984178
H     -7.668517    0.148535   -1.191339
H     -3.530247   -2.544712    2.085738
