17

C      0.017484    1.990887    0.047043
C     -1.225263    1.356177    0.053482
C     -1.282696   -0.045921    0.021135
N     -0.124719   -0.761542   -0.015946
C      1.101035   -0.167152   -0.023049
C      1.188260    1.232495    0.008724
C      2.312920   -1.002904   -0.063923
O      2.209862   -2.258732   -0.091997
O      3.575877   -0.416653   -0.071871
C     -2.570445   -0.760741    0.026445
O     -3.658974   -0.125461    0.060405
O     -2.587057   -2.152052   -0.006349
H      0.073319    3.071568    0.071774
H     -2.128005    1.953428    0.083325
H      2.147620    1.734425    0.004038
H      4.413298   -0.986016   -0.099927
H     -3.462517   -2.661805   -0.003309
