42

C     -8.523115   -0.473214   -1.430742
O     -7.640627   -1.244836   -0.622514
C     -6.354417   -0.835114   -0.240920
C     -5.808276    0.402211   -0.632934
C     -4.520827    0.765039   -0.225855
C     -3.764472   -0.094925    0.585126
C     -4.304393   -1.333364    0.964162
C     -5.591544   -1.695678    0.557047
C     -2.365402    0.281166    0.993940
C     -1.350711   -0.202816   -0.045984
N      0.011336    0.159602    0.345321
C      1.139297   -0.185235   -0.469393
O      0.966885   -0.813739   -1.550237
C      2.497057    0.200536   -0.037448
C      3.590123   -0.115497   -0.746971
C      4.970498    0.245217   -0.338720
C      6.043769   -0.483084   -0.879092
C      7.366532   -0.173698   -0.531307
C      7.627377    0.877923    0.354651
C      6.565188    1.619709    0.885874
C      5.246474    1.311536    0.540239
O      8.943159    1.182294    0.698980
O      8.425868   -0.906940   -1.063176
H     -8.065575   -0.287197   -2.425370
H     -9.468397   -1.035551   -1.574173
H     -8.755047    0.490528   -0.930093
H     -6.368044    1.088149   -1.253875
H     -4.112535    1.716401   -0.544184
H     -3.728200   -2.018646    1.573588
H     -5.997808   -2.652295    0.860428
H     -2.287634    1.385322    1.103369
H     -2.127016   -0.168207    1.983092
H     -1.582064    0.258610   -1.031101
H     -1.420036   -1.308503   -0.143667
H      0.175479    0.681420    1.236711
H      2.586981    0.732454    0.899239
H      3.477060   -0.703650   -1.650576
H      5.853913   -1.299481   -1.565834
H      6.761074    2.441939    1.562454
H      4.455563    1.926794    0.945620
H      9.162756    1.938509    1.336810
H      8.269748   -1.673686   -1.707085
