40

C     -1.895776   -0.891675   -1.475972
C     -1.463369   -1.778766   -0.292598
C     -0.859828   -0.989495    0.883129
N      0.352197   -0.246745    0.461924
C      0.549165    0.972667    1.280400
C     -0.232148    2.146927    0.679273
C      0.039444    3.444991    1.444525
N     -0.707153    4.546726    0.845587
C      1.555925   -1.110738    0.494361
C      2.519468   -0.703753   -0.628729
C      3.793392   -1.556462   -0.632040
N      3.488581   -2.948095   -0.953415
C     -3.150718   -0.037015   -1.209340
N     -4.357082   -0.845144   -1.031039
H     -2.088332   -1.543711   -2.355535
H     -1.058137   -0.219159   -1.760945
H     -0.715983   -2.509284   -0.666423
H     -2.320510   -2.380928    0.072652
H     -1.640984   -0.306531    1.279191
H     -0.622674   -1.691053    1.715124
H      1.622674    1.266995    1.304403
H      0.239628    0.801795    2.337110
H      0.066380    2.278583   -0.383958
H     -1.319765    1.932562    0.713313
H     -0.255654    3.326067    2.511494
H      1.126218    3.678399    1.402372
H     -0.434772    5.424040    1.345265
H     -1.723938    4.397792    1.041776
H      1.291008   -2.179411    0.340851
H      2.066124   -1.054108    1.483498
H      2.005067   -0.798423   -1.610163
H      2.812017    0.360343   -0.503244
H      4.281003   -1.502513    0.366151
H      4.504940   -1.146907   -1.383447
H      4.377878   -3.493297   -0.880696
H      3.192042   -2.995224   -1.955498
H     -3.007270    0.615942   -0.325208
H     -3.306490    0.633457   -2.081407
H     -4.321922   -1.317778   -0.099870
H     -4.400646   -1.581074   -1.772872
