48

C      2.902940   -1.487933   -0.661849
C      2.492116   -0.685316    0.606210
C      1.526318   -1.502031    1.487125
C      0.147120   -1.662702    0.788139
C     -0.505286   -0.290685    0.341812
C      0.554143    0.536583   -0.501501
C      1.840086    0.678058    0.338216
C      2.985935    1.587508   -0.109214
C      4.151371    1.150073    0.798167
C      3.758933   -0.226053    1.248295
O      4.434806   -0.911234    2.000307
C     -0.006259    1.908600   -0.928551
C     -1.278444    1.738149   -1.761631
C     -2.282559    0.927023   -0.978519
C     -3.439575    1.510343   -0.618419
C     -4.337484    0.904805    0.364176
O     -5.474121    1.406167    0.572174
C     -3.858832   -0.236042    1.191749
C     -2.999962   -1.171446    0.338207
C     -1.854072   -0.471385   -0.489953
C     -1.641685   -1.366178   -1.746175
O     -0.805175    0.477313    1.492039
H      2.042371   -1.814860   -1.274455
H      3.454881   -2.404626   -0.361423
H      3.572698   -0.896966   -1.321408
H      1.384354   -0.998398    2.468920
H      1.955701   -2.506924    1.692127
H      0.265337   -2.340232   -0.077680
H     -0.509637   -2.200956    1.500096
H      0.821273    0.010357   -1.435263
H      1.526510    1.117962    1.317234
H      2.740441    2.660644    0.046151
H      3.230268    1.416242   -1.179819
H      4.234364    1.822129    1.679290
H      5.109581    1.126113    0.236823
H      0.744752    2.446782   -1.546222
H     -0.224323    2.534396   -0.035099
H     -1.669278    2.745656   -2.025233
H     -1.040932    1.227057   -2.718073
H     -3.702738    2.488252   -1.004428
H     -4.729346   -0.803528    1.587816
H     -3.296100    0.156573    2.059968
H     -2.607602   -1.981127    0.981337
H     -3.709725   -1.675827   -0.357214
H     -1.503347   -2.430744   -1.463119
H     -2.538613   -1.321091   -2.402072
H     -0.780661   -1.065667   -2.369206
H     -1.080542   -0.124832    2.230147
