33

C      2.942265    0.954260   -1.225227
C      3.144409    0.417068    0.198534
C      2.350922   -0.882919    0.443508
C      0.860972   -0.651474    0.406271
C      0.119799   -0.967832   -0.742117
C     -1.256422   -0.728982   -0.782909
C     -1.917660   -0.166126    0.324799
C     -1.168768    0.155763    1.470445
C      0.207609   -0.083212    1.509708
C     -3.409097    0.103790    0.293843
C     -3.764090    1.171228   -0.749514
C     -4.185480   -1.178847    0.106934
O     -4.562234   -1.820077    1.123323
O     -4.460092   -1.703608   -1.155504
C      4.610969    0.179654    0.455448
O      5.257386   -0.625690   -0.266752
O      5.265945    0.834532    1.495238
H      3.572429    1.855184   -1.386530
H      3.214880    0.185552   -1.980051
H      1.883511    1.250136   -1.380617
H      2.782927    1.192905    0.909006
H      2.640808   -1.652939   -0.305842
H      2.618181   -1.294431    1.442311
H      0.608555   -1.394354   -1.609358
H     -1.801915   -0.980827   -1.681903
H     -1.648115    0.595172    2.336329
H      0.766021    0.177156    2.400493
H     -3.722758    0.525872    1.275520
H     -3.403811    0.896024   -1.762249
H     -3.293357    2.137843   -0.469222
H     -4.864588    1.319533   -0.785835
H     -4.168698   -1.247245   -2.009564
H      4.779494    1.483893    2.101484
