29

C      4.312026    0.147709   -1.474444
C      3.167800   -0.594310   -0.872630
O      2.401130   -1.266582   -1.614520
O      2.988904   -0.576445    0.515081
C      1.910843   -1.237455    1.174286
C      0.617206   -0.510681    0.922957
C     -0.366922   -1.067294    0.092588
C     -1.566886   -0.373335   -0.159951
C     -1.776461    0.886424    0.423294
C     -0.783168    1.442737    1.251484
C      0.403438    0.749353    1.495011
O     -2.982146    1.553742    0.154793
C     -3.329072    2.833000    0.675115
O     -2.573019   -0.900792   -0.985110
C     -2.497495   -2.159728   -1.646195
H      4.015812    0.574641   -2.455834
H      4.622022    0.975472   -0.802769
H      5.167162   -0.544766   -1.618366
H      1.856821   -2.298214    0.844270
H      2.113997   -1.244936    2.266079
H     -0.191257   -2.036538   -0.354348
H     -0.917492    2.412564    1.710480
H      1.158852    1.195853    2.130112
H     -3.359002    2.798672    1.784678
H     -4.334464    3.115650    0.301443
H     -2.596380    3.595068    0.335090
H     -1.634358   -2.173035   -2.344844
H     -3.427911   -2.319537   -2.228520
H     -2.399981   -2.977235   -0.900960
