50

C      0.763772    0.604142   -0.823929
C      0.176491   -0.405850    0.176642
C     -1.181294   -0.965903   -0.277523
C     -2.324150    0.046638   -0.108920
C     -3.674313   -0.581816   -0.474419
C     -4.815034    0.427951   -0.302572
C     -6.167077   -0.198057   -0.675702
C     -7.321008    0.807299   -0.567294
C     -7.595288    1.185591    0.856134
O     -8.269579    0.418832    1.594558
O     -7.075658    2.368763    1.371874
C      2.140525    1.143190   -0.378271
C      3.326930    0.517822   -1.136147
C      3.588917   -0.965747   -0.817972
C      3.920325   -1.271742    0.657740
C      5.111386   -0.487693    1.236525
C      6.428506   -0.776247    0.505768
C      7.567469   -0.087891    1.194654
O      8.264707   -0.713922    2.035812
O      7.834549    1.255439    0.947993
H      0.829316    0.141429   -1.832525
H      0.070310    1.467370   -0.905695
H      0.873219   -1.261379    0.283334
H      0.072880    0.066589    1.177918
H     -1.118749   -1.296581   -1.337810
H     -1.406643   -1.862587    0.340921
H     -2.356035    0.393944    0.947270
H     -2.149278    0.924994   -0.765501
H     -3.643982   -0.928008   -1.531102
H     -3.861471   -1.461273    0.180572
H     -4.841371    0.767749    0.755772
H     -4.626343    1.310389   -0.952877
H     -6.372426   -1.075380   -0.022971
H     -6.120260   -0.559910   -1.726306
H     -7.090075    1.718831   -1.160254
H     -8.237983    0.351832   -1.000239
H     -7.236610    2.628689    2.337847
H      2.280160    1.050972    0.719724
H      2.163224    2.234883   -0.591213
H      3.148753    0.617267   -2.228984
H      4.242715    1.108628   -0.924349
H      2.705716   -1.566301   -1.120472
H      4.424821   -1.319924   -1.457761
H      3.029700   -1.074041    1.289124
H      4.130865   -2.359564    0.749405
H      5.222957   -0.784207    2.302933
H      4.896981    0.601941    1.225498
H      6.376669   -0.409727   -0.540879
H      6.616227   -1.872030    0.482234
H      7.276536    1.787981    0.291431
