26

C     -3.972376    0.704427    2.017608
C     -2.624227    0.761506    1.377107
O     -2.000743    1.856817    1.338912
N     -2.081964   -0.406011    0.746550
C     -0.774106   -0.423879    0.158312
C     -0.673659   -0.661609   -1.155862
C      0.627089   -0.737232   -1.827712
O      0.698589   -1.181953   -3.003849
C      1.862011   -0.269565   -1.124914
C      1.761550   -0.070953    0.345324
C      0.448675   -0.457997    1.061342
O      0.254839    0.404882    2.150072
O      2.372082   -1.217899   -0.222814
C      2.938794    0.507218   -1.900753
O      4.124581    0.649776   -1.162941
H     -4.756181    0.779919    1.235640
H     -4.090932   -0.255213    2.563035
H     -4.094135    1.540748    2.738288
H     -2.714428   -1.220817    0.576952
H     -1.572191   -0.783131   -1.749571
H      2.518906    0.546272    0.874024
H      0.540173   -1.502911    1.440562
H      0.895834    0.127826    2.856344
H      3.148738   -0.002081   -2.868627
H      2.543093    1.517812   -2.133315
H      4.619987   -0.205954   -1.252042
