36

C     -2.157852    3.172133   -1.029658
O     -1.906613    1.819926   -0.661558
C     -0.630991    1.250582   -0.523391
C     -0.501849   -0.120311   -0.151621
C     -1.596130   -0.981629    0.077688
C     -1.374480   -2.281630    0.460940
C     -2.636908   -2.949254    0.666183
O     -2.770496   -4.149423    1.023729
C     -3.765609   -2.014367    0.409022
C     -3.072927   -0.699707   -0.036557
O     -3.396823   -0.406324   -1.369761
C     -0.077687   -2.773263    0.610111
O      0.125978   -3.965773    0.959026
O      0.952511   -1.964097    0.378786
C      0.797591   -0.688995    0.014319
C      1.913226    0.115366   -0.208646
C      3.358489   -0.235305   -0.106151
C      3.784326   -0.443238    1.309168
C      4.570057    0.541182    1.698434
O      4.766538    1.468258    0.690469
C      4.059010    1.096998   -0.483091
O      3.009962    2.028479   -0.747211
C      1.782212    1.422149   -0.576380
C      0.537443    2.020291   -0.740947
H     -1.715641    3.860833   -0.279191
H     -3.253782    3.339828   -1.062818
H     -1.736463    3.378572   -2.036080
H     -4.344341   -1.855887    1.344211
H     -4.428892   -2.425009   -0.382885
H     -3.354473    0.137791    0.642363
H     -4.312131   -0.022421   -1.357303
H      3.646140   -1.078523   -0.769965
H      3.490559   -1.274927    1.936112
H      5.008835    0.620739    2.683869
H      4.741482    0.995397   -1.353652
H      0.489732    3.061559   -1.027565
