27

C     -4.368901    0.866826    0.164374
N     -3.767741   -0.412838   -0.221936
C     -2.330244   -0.270972   -0.495870
C     -1.518247   -0.437375    0.792853
C     -0.042452   -0.376983    0.501318
C      0.668521   -1.547562    0.195965
C      2.031915   -1.485866   -0.105953
C      2.703504   -0.257803   -0.118071
C      1.987856    0.918977    0.175087
C      0.624119    0.857701    0.477230
O      4.071896   -0.249342   -0.426705
C      4.877308    0.923806   -0.476235
H     -5.450723    0.716832    0.364582
H     -3.902853    1.256170    1.093395
H     -4.265188    1.616978   -0.650507
H     -4.235280   -0.715312   -1.108698
H     -2.019903   -1.068468   -1.208395
H     -2.099057    0.706947   -0.977515
H     -1.784728    0.359919    1.518972
H     -1.771431   -1.411354    1.266475
H      0.166988   -2.507464    0.190356
H      2.569547   -2.397233   -0.335238
H      2.474387    1.884723    0.168858
H      0.086658    1.773419    0.691211
H      4.887894    1.421881    0.516261
H      4.490181    1.620340   -1.249671
H      5.915974    0.639519   -0.742144
