9

C      0.685630    0.725746    0.038869
C     -0.690087    0.673199   -0.011395
N     -1.071026   -0.614699    0.033545
N     -0.003296   -1.391738    0.110357
C      1.082444   -0.594559    0.115095
H      1.314792    1.605459    0.022304
H     -1.366468    1.515192   -0.076217
H     -2.053647   -0.966171    0.012160
H      2.101658   -0.952429    0.170674
