11

C     -0.098417    1.169902   -0.035791
C     -1.243494    0.371766    0.016158
C     -1.105776   -1.018360    0.058215
N      0.132985   -1.580820    0.048363
C      1.260521   -0.821139   -0.001938
C      1.164065    0.572427   -0.045044
H     -0.189104    2.247922   -0.068771
H     -2.226411    0.824770    0.023757
H     -1.983252   -1.649779    0.098667
H      2.231274   -1.298514   -0.008468
H      2.057608    1.181826   -0.085146
