17

C     -1.911494    1.728593    0.874277
C     -2.129171    0.410132    1.250652
N     -1.116840   -0.310031    0.751960
C     -0.844353   -1.648844    0.826924
N      0.284914   -2.129801    0.211721
C      1.087397   -1.246003   -0.449400
C      0.810221    0.081535   -0.519322
C     -0.327646    0.561977    0.101311
N     -0.771181    1.832990    0.145265
N      1.758815    0.704575   -1.223689
C      2.605991   -0.300484   -1.567547
N      2.225025   -1.526020   -1.106526
H     -2.550328    2.566437    1.118988
H     -2.952504    0.019453    1.834611
H     -1.504314   -2.320486    1.360434
H      1.833724    1.719754   -1.455806
H      3.501743   -0.143780   -2.153856
