44

C     -3.011652   -2.676314    0.633983
N     -1.711592   -2.040865    0.399405
C     -1.523815   -1.240308   -0.823278
C     -0.364504   -0.214764   -0.683362
C      0.894960   -0.883324   -0.068842
C      0.639411   -1.538873    1.304728
C     -0.606678   -2.379919    1.263972
O     -0.707534   -3.348568    2.065698
O      0.514084   -0.582251    2.322061
C      2.140857    0.000953   -0.112826
C      2.300326    1.123968    0.727169
C      3.446601    1.919466    0.643269
C      4.448650    1.611780   -0.277455
C      4.304423    0.509979   -1.121059
C      3.159561   -0.288187   -1.043639
C     -0.797926    1.084253   -0.006149
C     -1.600707    1.099280    1.153422
C     -1.965571    2.309713    1.749874
C     -1.540856    3.519773    1.199337
C     -0.752124    3.522785    0.048253
C     -0.385184    2.316007   -0.553313
O     -1.235721   -2.132931   -1.889722
C     -1.948344   -1.776046   -3.053981
H     -3.753612   -2.381078   -0.138371
H     -3.400808   -2.371579    1.628228
H     -2.904288   -3.781268    0.603128
H     -2.463219   -0.656651   -0.997440
H     -0.081612    0.054469   -1.726641
H      1.107191   -1.749618   -0.738129
H      1.510574   -2.200504    1.526639
H      0.652328   -1.055178    3.184270
H      1.538522    1.409328    1.436744
H      3.554914    2.780171    1.290624
H      5.334666    2.230187   -0.340674
H      5.079610    0.274782   -1.838926
H      3.070890   -1.132785   -1.715478
H     -1.948413    0.183556    1.606267
H     -2.579061    2.308816    2.641597
H     -1.823806    4.455244    1.664349
H     -0.422261    4.461332   -0.378067
H      0.234795    2.343279   -1.440891
H     -1.733629   -0.727181   -3.356946
H     -3.040958   -1.921066   -2.904832
H     -1.628490   -2.439862   -3.882995
