34

C      2.804859    2.175226   -0.442036
C      3.218901    0.849627   -0.287180
C      2.440914   -0.045763    0.452967
C      1.237431    0.379582    1.041554
C      0.835315    1.718156    0.891224
C      1.614879    2.609208    0.147845
C      0.383978   -0.595478    1.812780
C     -0.130974   -1.697252    0.921067
C     -0.898756   -1.536793   -0.161238
C     -1.007087   -2.832262   -0.792992
O     -1.640369   -3.085672   -1.851046
O     -0.315287   -3.777308   -0.062666
C      0.275886   -3.146239    1.068457
O     -0.257883   -3.692823    2.243028
C     -1.443056   -0.271691   -0.690581
C     -1.144647    0.124968   -2.003616
C     -1.640426    1.333120   -2.503248
C     -2.445431    2.145598   -1.700060
C     -2.760841    1.748160   -0.397871
C     -2.265377    0.541622    0.105984
H      3.407028    2.866482   -1.017309
H      4.141920    0.515056   -0.742701
H      2.770862   -1.071360    0.561423
H     -0.083502    2.071314    1.341858
H      1.295891    3.636578    0.028841
H      1.001730   -1.033909    2.625212
H     -0.471430   -0.085639    2.303238
H      1.382860   -3.260234    1.026994
H      0.351274   -3.427543    2.980243
H     -0.513433   -0.490694   -2.632597
H     -1.398704    1.640547   -3.512411
H     -2.827953    3.080774   -2.087954
H     -3.390208    2.374468    0.220952
H     -2.528363    0.240173    1.111838
