36

C     -1.398136   -2.055537   -1.000542
C     -2.142988   -0.897389   -0.415136
C     -3.521720   -0.809890   -0.231718
C     -4.084083    0.404634    0.192162
C     -3.247684    1.542709    0.368496
C     -1.862927    1.428743    0.157527
C     -1.314550    0.180779   -0.154065
C      0.061732   -0.141235   -0.637028
C      0.053354   -1.685878   -0.650095
C      1.153238   -2.115575   -1.629254
O      2.406632   -1.525583   -1.224658
C      2.508649   -0.383534   -0.391820
C      1.342332    0.304682    0.024897
C      1.447968    1.364947    0.935680
C      2.704587    1.762964    1.398457
C      3.865388    1.110632    0.959131
C      3.766300    0.030795    0.064317
O      4.905107   -0.648156   -0.369581
O      5.115360    1.525677    1.415929
O      0.373612   -2.225681    0.619644
O     -3.750240    2.796643    0.721354
O     -5.463438    0.444328    0.404191
H     -1.554173   -2.082530   -2.100752
H     -1.708486   -3.017790   -0.538671
H     -4.153062   -1.667105   -0.429122
H     -1.248053    2.315999    0.188948
H      0.098447    0.246727   -1.682178
H      0.909328   -1.782124   -2.661213
H      1.251570   -3.221681   -1.636512
H      0.578808    1.880124    1.306901
H      2.776589    2.584988    2.099378
H      5.835647   -0.389328   -0.064477
H      5.214124    2.299103    2.063202
H     -0.228630   -1.826864    1.301031
H     -4.731083    2.992157    0.860503
H     -5.959520    1.259248    0.735074
