40

C     -1.640413    2.263645   -0.669035
C     -1.489497    2.848057    0.592183
C     -2.107235    2.274973    1.711763
C     -2.885098    1.122143    1.561266
C     -3.043707    0.539908    0.300027
C     -2.419526    1.104855   -0.824873
C     -2.521815    0.434635   -2.172045
C     -1.279979   -0.413459   -2.483390
C     -1.181407   -1.609815   -1.579936
O     -1.692822   -2.703333   -1.944847
C     -0.535123   -1.484969   -0.258755
C     -0.504055   -2.491588    0.623017
C      0.022753   -2.339338    1.996075
C      1.102582   -1.625625    2.353942
C      2.076414   -1.017785    1.421583
C      2.569508   -1.726759    0.311327
C      3.511374   -1.139092   -0.537846
C      3.986017    0.153008   -0.277274
C      3.513992    0.853102    0.837342
C      2.570694    0.268022    1.688342
O      4.927677    0.745987   -1.114929
O     -1.951776    2.840531    2.975092
H     -1.141553    2.705720   -1.522646
H     -0.886659    3.740644    0.700250
H     -3.360954    0.673517    2.424249
H     -3.630553   -0.366468    0.203869
H     -3.434293   -0.199738   -2.225820
H     -2.627297    1.214629   -2.956891
H     -0.361146    0.207455   -2.395389
H     -1.341997   -0.761300   -3.537765
H     -0.128269   -0.519540    0.013302
H     -1.000463   -3.424096    0.387886
H     -0.534170   -2.835264    2.780149
H      1.290286   -1.498050    3.413224
H      2.233172   -2.735866    0.106868
H      3.877194   -1.691893   -1.393369
H      3.882792    1.849070    1.046650
H      2.218239    0.821889    2.548903
H      5.295492    0.259849   -1.924323
H     -1.378375    3.662340    3.118893
