11

C     -1.470743   -0.484709   -0.124165
C     -1.443094    0.886997    0.003035
N     -0.164412    1.310803    0.063610
C      0.554557    0.172574   -0.029512
N     -0.206509   -0.932815   -0.144391
N      1.984078    0.149696   -0.007674
O      2.600578   -0.931545   -0.097236
O      2.689799    1.323813    0.112639
H     -2.350151   -1.110852   -0.196746
H     -2.304165    1.540085    0.048953
H      0.110061   -1.924046   -0.230670
