43

C     -2.711458    3.992962   -0.616393
C     -2.067998    2.899552    0.171879
O     -2.388114    2.734074    1.380021
N     -1.065978    2.074046   -0.439217
C     -0.351976    1.011882    0.279519
C      1.057541    1.499428    0.641682
C      1.867472    0.299371    1.110386
C      2.000303   -0.740378   -0.032151
O      1.003079   -0.602335   -1.049306
C     -0.309133   -0.295368   -0.582058
C     -0.995062   -1.529997    0.085988
C     -2.551437   -1.444734    0.070068
C     -3.199564   -2.732699    0.618743
O     -4.595284   -2.603234    0.655684
O     -3.014375   -0.329939    0.789402
O     -0.585728   -2.710872   -0.561745
C      3.348182   -0.547285   -0.686244
O      3.467834    0.243940   -1.662528
O      4.469890   -1.199559   -0.163526
C      5.773489   -1.037881   -0.708798
O      1.947984   -2.033291    0.520637
O      0.996202    2.448200    1.675333
H     -3.608061    4.379779   -0.086973
H     -3.022597    3.606155   -1.609291
H     -1.986970    4.821722   -0.757293
H     -0.757211    2.309457   -1.410191
H     -0.865084    0.798009    1.239887
H      1.557867    1.942399   -0.252807
H      1.354388   -0.161264    1.984996
H      2.862800    0.638828    1.477057
H     -0.896295   -0.102366   -1.506945
H     -0.656725   -1.597455    1.142708
H     -2.885507   -1.327057   -0.984073
H     -2.919432   -3.610151   -0.007150
H     -2.835350   -2.925261    1.650568
H     -4.912365   -2.680427   -0.282021
H     -2.793037   -0.478428    1.746230
H     -0.869670   -2.645531   -1.511425
H      5.786436   -1.371251   -1.768122
H      6.490254   -1.654552   -0.128787
H      6.082105    0.027176   -0.646309
H      2.024782   -2.680291   -0.229499
H      0.753799    3.314627    1.255761
