35

C      2.219681   -1.353679   -0.752100
C      2.854444    0.046910   -0.686573
C      4.330875   -0.056737   -0.278802
C      2.079310    1.059388    0.211359
C      0.642120    1.215515   -0.226471
O      0.367283    2.067702   -1.114956
N     -0.399469    0.384127    0.314432
C     -1.805087    0.547314   -0.073078
C     -2.609418   -0.758628    0.179178
C     -1.995149   -1.943278   -0.584875
C     -4.083388   -0.600231   -0.232470
C     -2.385410    1.705372    0.691032
O     -2.339648    1.722362    1.950809
O     -2.985286    2.756448    0.004591
N      2.155058    0.753736    1.645862
H      1.186080   -1.296267   -1.149761
H      2.204531   -1.846516    0.241002
H      2.801306   -1.997973   -1.445522
H      2.838326    0.453725   -1.722897
H      4.789121    0.953861   -0.227032
H      4.892905   -0.650493   -1.031104
H      4.435977   -0.553641    0.708959
H      2.558455    2.054723    0.062272
H     -0.166755   -0.291581    1.075976
H     -1.857578    0.774810   -1.161693
H     -2.580117   -1.000107    1.265384
H     -2.602983   -2.860131   -0.429187
H     -1.948903   -1.725815   -1.673646
H     -0.971221   -2.160479   -0.217364
H     -4.580585    0.181157    0.379624
H     -4.634119   -1.551068   -0.068252
H     -4.162292   -0.321955   -1.305418
H     -3.385481    3.541612    0.504002
H      3.102141    1.018479    2.001541
H      2.035276   -0.268663    1.816551
