41

C      4.930763    1.356047   -2.463316
C      4.903587    2.046488   -1.248641
C      3.939317    1.737292   -0.284959
C      2.993353    0.730040   -0.532532
C      2.019958    0.411353    0.426091
C      1.082911   -0.604056    0.182158
C      1.105648   -1.278501   -1.052217
C      2.070649   -0.967809   -2.013636
C      3.020807    0.031362   -1.763119
C      3.993549    0.351943   -2.722926
N      0.073395   -0.877894    1.169234
C     -0.569331   -2.153525    1.338566
O     -0.031344   -3.201526    0.889105
C     -1.897378   -2.256830    2.050296
C     -3.066567   -1.887274    1.111379
C     -2.971298   -0.481984    0.564959
C     -3.392431    0.612465    1.338015
C     -3.254373    1.915476    0.850119
C     -2.694439    2.139337   -0.411772
C     -2.277408    1.051483   -1.190086
C     -2.418330   -0.252170   -0.706410
O     -2.556525    3.443278   -0.881891
N     -1.905467   -1.421542    3.253022
H      5.679456    1.600332   -3.205813
H      5.631454    2.823477   -1.053654
H      3.933134    2.283380    0.650869
H      1.990815    0.947056    1.368073
H      0.361557   -2.026244   -1.289828
H      2.067332   -1.501488   -2.956677
H      4.028329   -0.171772   -3.670842
H     -0.201958   -0.098786    1.808826
H     -2.043660   -3.317236    2.360948
H     -3.100127   -2.616971    0.272256
H     -4.027433   -2.003262    1.658957
H     -3.821650    0.457317    2.319871
H     -3.578639    2.752521    1.455240
H     -1.840373    1.214885   -2.166919
H     -2.082135   -1.081392   -1.316084
H     -2.153626    3.638304   -1.791025
H     -2.800337   -1.592474    3.767191
H     -1.141188   -1.751097    3.887170
