22

C     -2.365159   -1.103648    0.969576
C     -1.789561    0.289916    0.707995
C     -0.925344    0.279098   -0.538388
O     -1.485579    0.377853   -1.665050
C      0.553388    0.123020   -0.481165
C      1.338400    0.513181   -1.583867
C      2.728967    0.371486   -1.553533
C      3.354020   -0.165888   -0.427222
C      2.589334   -0.565765    0.669966
C      1.198097   -0.425929    0.646330
N     -2.878234    1.264553    0.593267
H     -3.005561   -1.427697    0.121134
H     -1.547267   -1.843074    1.101974
H     -2.978563   -1.090512    1.895485
H     -1.177398    0.584716    1.586886
H      0.878115    0.937546   -2.467546
H      3.322322    0.679364   -2.404852
H      4.430566   -0.275877   -0.406026
H      3.074786   -0.990036    1.539454
H      0.637298   -0.767263    1.504839
H     -3.486751    1.025449   -0.223845
H     -2.465875    2.209510    0.414587
