18

C     -2.191753    0.843613    0.047709
C     -1.375125   -0.193043   -0.727012
C     -0.062864   -0.599074   -0.022868
C      0.931561    0.570578    0.064264
C      2.271785    0.097119    0.535347
O      2.555803    0.122161    1.762845
O      3.188338   -0.409745   -0.380495
O     -0.328250   -1.091131    1.266395
H     -3.157764    1.013415   -0.472789
H     -2.407116    0.486074    1.076571
H     -1.653241    1.812514    0.096286
H     -2.001049   -1.101603   -0.863857
H     -1.148331    0.205448   -1.739848
H      0.408903   -1.402766   -0.637041
H      1.053694    1.038201   -0.936723
H      0.554504    1.347649    0.763515
H      4.093280   -0.748494   -0.076374
H     -0.732374   -1.990918    1.152615
