26

C     -1.317836   -0.838145   -1.961999
N     -1.276978   -0.206548   -0.646709
C     -0.314431    0.805546   -0.233953
C     -0.752409    1.260187    1.184162
C     -2.000687    0.432652    1.563814
C     -2.232594   -0.416154    0.372499
O     -3.175263   -1.246195    0.272541
O     -3.112078    1.249955    1.836598
C      1.090844    0.241917   -0.234072
C      2.138354    0.941999   -0.853374
N      3.401791    0.438812   -0.839278
C      3.695495   -0.740384   -0.230415
C      2.689083   -1.468015    0.406189
C      1.384053   -0.973536    0.406872
H     -1.205533   -1.936791   -1.850543
H     -0.494289   -0.455701   -2.601460
H     -2.287059   -0.614313   -2.454771
H     -0.389142    1.668946   -0.932601
H     -0.983179    2.348276    1.174643
H      0.048312    1.098344    1.939815
H     -1.788172   -0.211723    2.443760
H     -3.304848    1.785669    1.021891
H      1.952316    1.886632   -1.347718
H      4.711563   -1.111591   -0.238220
H      2.918777   -2.405279    0.896240
H      0.603910   -1.534560    0.906090
