50

C      5.855146   -0.871436   -1.441860
C      7.249275   -0.871982   -1.547750
C      8.042627   -0.800684   -0.398824
C      7.435111   -0.730202    0.861555
C      6.041238   -0.728698    0.970798
C      5.237188   -0.793389   -0.181201
C      3.756590   -0.801920   -0.071366
C      3.008074   -1.760490   -0.773218
O      1.683087   -1.790875   -0.684747
C      0.993558   -0.932226    0.058164
C      1.660514    0.069792    0.795048
C      3.062864    0.133998    0.720026
O      3.692957    1.034872    1.340585
C      0.909264    0.968805    1.571587
C     -0.484515    0.869651    1.613566
C     -1.151134   -0.127774    0.875323
C     -0.401013   -1.024210    0.105865
O     -2.547878   -0.275377    0.878545
C     -3.491764    0.619460    1.475300
C     -3.600939    1.944661    0.693955
C     -4.283116    1.730978   -0.666860
C     -5.581409    0.909956   -0.522611
C     -5.410178   -0.324367    0.407615
O     -4.752918   -0.015638    1.632920
C     -4.805253   -1.561874   -0.293369
O     -5.762879   -2.182107   -1.110980
O     -6.634294    1.734211   -0.080661
O     -3.388070    1.084852   -1.536442
O     -4.316781    2.875304    1.465364
O      9.430385   -0.802139   -0.519654
H      5.258447   -0.918780   -2.344477
H      7.713608   -0.926797   -2.524204
H      8.041613   -0.681239    1.756956
H      5.591326   -0.693858    1.955165
H      3.505585   -2.496340   -1.391970
H      1.395118    1.746649    2.147932
H     -1.027936    1.574703    2.225534
H     -0.907603   -1.794834   -0.462419
H     -3.141818    0.855448    2.502481
H     -2.576178    2.343439    0.515380
H     -4.532573    2.731364   -1.093791
H     -5.875708    0.555032   -1.533360
H     -6.439299   -0.634385    0.696193
H     -3.901832   -1.304668   -0.887688
H     -4.493635   -2.295041    0.480648
H     -5.696147   -1.761603   -2.007431
H     -6.530621    1.877990    0.895088
H     -3.730255    1.220962   -2.458560
H     -4.130499    3.772765    1.083344
H     10.032669   -0.751959    0.293752
