21

C     -1.906587    1.596452    0.378870
C     -1.670505    0.168406   -0.116516
C     -0.198873   -0.104884   -0.513362
C     -0.113222   -1.444128   -1.268867
C      0.751202   -0.077686    0.713922
C      2.191824   -0.200915    0.294016
O      2.785723   -1.311262    0.359460
O      2.859960    0.912686   -0.205424
O      0.412064   -1.101565    1.615960
H     -2.998278    1.778508    0.469837
H     -1.454168    1.748666    1.380093
H     -1.485960    2.333823   -0.337312
H     -2.001485   -0.550675    0.664126
H     -2.321708    0.015978   -1.005342
H      0.119154    0.693160   -1.221864
H      0.917656   -1.623063   -1.639036
H     -0.783399   -1.429242   -2.154794
H     -0.413412   -2.288241   -0.611967
H      0.651181    0.908094    1.220154
H      3.824784    0.847586   -0.507092
H      0.834049   -0.871695    2.485138
