40

C     -3.219224   -1.628830   -0.609249
C     -3.530105   -2.624598    0.321658
C     -4.260778   -2.306720    1.474430
C     -4.684007   -0.990663    1.686380
C     -4.373981    0.006789    0.756569
C     -3.617265   -0.299061   -0.384299
C     -3.343580    0.761234   -1.376534
C     -2.154200    0.999087   -1.952092
C     -0.871290    0.372597   -1.567543
O     -0.730907   -0.157487   -0.432078
N      0.237483    0.429489   -2.476653
C      1.569193   -0.079436   -2.147342
C      2.564440    1.073708   -1.958693
C      2.211803    2.018461   -0.793795
C      2.368858    1.378299    0.590215
N      3.756202    0.977161    0.810013
C      4.214031    0.410119    1.888291
N      5.598847    0.071406    1.957611
N      3.363258    0.117741    3.004757
O     -4.575343   -3.289810    2.409845
H     -2.676094   -1.896020   -1.507337
H     -3.209895   -3.643061    0.142453
H     -5.257070   -0.741435    2.570409
H     -4.715351    1.019907    0.931481
H     -4.176777    1.390721   -1.665493
H     -2.119151    1.750109   -2.731809
H      0.111174    0.907547   -3.397549
H      1.546640   -0.731727   -1.249983
H      1.920807   -0.712995   -2.989523
H      3.582729    0.654450   -1.809888
H      2.594884    1.669450   -2.897001
H      2.879500    2.905950   -0.847326
H      1.171360    2.390542   -0.909058
H      2.077114    2.127719    1.357856
H      1.697895    0.500017    0.687790
H      6.235688    0.274334    1.155042
H      5.991881   -0.384044    2.810819
H      2.345734    0.347928    3.008789
H      3.760199   -0.340424    3.854635
H     -4.284704   -4.252427    2.284202
