45

C      4.931570   -0.624356    0.151132
C      3.562206   -1.317193    0.080557
C      3.729119   -2.746130   -0.452488
C      2.564793   -0.535896   -0.804327
C      2.159149    0.815169   -0.194509
C      1.044770    1.475351   -1.020697
C      0.648491    2.862018   -0.485996
C     -0.049056    2.850682    0.888398
C     -1.407447    2.117294    0.889074
C     -1.315299    0.723879    1.535994
C     -2.659359   -0.021140    1.526386
C     -3.003861   -0.591250    0.141851
C     -4.299036   -1.412753    0.193995
C     -4.632678   -2.043880   -1.161019
O     -4.964111   -1.056272   -2.100783
H      5.341617   -0.459252   -0.868329
H      5.648640   -1.247908    0.726757
H      4.851166    0.350945    0.673473
H      3.151384   -1.389362    1.112187
H      2.749965   -3.271001   -0.459986
H      4.419633   -3.322601    0.199640
H      4.137715   -2.733353   -1.486001
H      3.002446   -0.372811   -1.814183
H      1.644992   -1.149784   -0.930112
H      1.812564    0.650520    0.846671
H      3.036620    1.495514   -0.172739
H      1.410308    1.606195   -2.062850
H      0.154131    0.814835   -1.073186
H     -0.027178    3.345885   -1.224832
H      1.557870    3.498415   -0.419790
H     -0.233048    3.911842    1.165705
H      0.631583    2.450393    1.669503
H     -2.135102    2.721368    1.474736
H     -1.806467    2.047151   -0.144277
H     -0.998026    0.849515    2.594475
H     -0.544852    0.103319    1.034345
H     -3.471392    0.655074    1.873353
H     -2.590000   -0.862440    2.250594
H     -3.131628    0.239939   -0.582256
H     -2.171291   -1.240963   -0.207483
H     -5.143843   -0.764008    0.513874
H     -4.187085   -2.228100    0.941881
H     -5.510830   -2.711662   -1.033734
H     -3.785241   -2.674642   -1.517745
H     -4.123903   -0.808547   -2.567667
