36

C      4.209049    0.853278   -1.695761
C      3.229563    0.729582   -0.579261
O      3.168115    1.637114    0.292617
O      2.430643   -0.421132   -0.496182
C      1.421872   -0.690741    0.492263
C      0.889007   -2.106199    0.198210
C      2.078563   -0.709549    1.893537
C      0.272146    0.381331    0.411435
C     -0.305732    0.564271   -1.019606
C     -1.619829   -0.194076   -1.252779
C     -2.699616    0.123610   -0.196683
C     -2.107468    0.007118    1.198414
C     -0.801344    0.165908    1.466823
C     -3.246582    1.555409   -0.410026
O     -3.732194   -0.832442   -0.381462
O     -4.697437   -0.586286    0.488954
H      4.289374    1.913028   -2.017684
H      5.203358    0.495987   -1.356423
H      3.876894    0.240967   -2.560179
H      0.608492   -2.202978   -0.870194
H      1.679874   -2.863241    0.390309
H      0.011593   -2.352354    0.832977
H      3.033421   -1.276952    1.860276
H      1.419104   -1.200588    2.640631
H      2.296100    0.316852    2.253900
H      0.726974    1.359172    0.675183
H     -0.477767    1.645454   -1.207351
H      0.425703    0.245430   -1.791585
H     -1.420345   -1.285223   -1.245148
H     -2.001437    0.046735   -2.269455
H     -2.780989   -0.099786    2.043653
H     -0.499471    0.154696    2.509359
H     -3.685546    1.653850   -1.425786
H     -2.447869    2.316010   -0.289520
H     -4.035302    1.795936    0.334125
H     -4.710916   -1.380192    1.082416
