26

C      4.471182   -0.278784    0.195865
C      3.094562    0.219870    0.625248
C      2.082453    0.099777   -0.516996
C      0.738876    0.586334   -0.076784
O      0.421909    1.794493   -0.252738
O     -0.131770   -0.295893    0.572578
C     -1.446127    0.065629    0.995281
C     -2.412188    0.149554   -0.201344
C     -2.515403   -1.200717   -0.922338
C     -3.797660    0.611332    0.264336
H      5.182971   -0.179949    1.042363
H      4.418902   -1.347945   -0.101256
H      4.849891    0.321686   -0.658609
H      2.750138   -0.379991    1.496230
H      3.179103    1.282944    0.940962
H      2.424629    0.696229   -1.391094
H      1.995329   -0.962141   -0.833974
H     -1.410466    1.037196    1.535903
H     -1.808160   -0.702560    1.712113
H     -2.027577    0.901908   -0.923874
H     -3.210828   -1.121928   -1.785118
H     -1.521610   -1.507218   -1.312256
H     -2.888883   -1.987126   -0.231642
H     -4.230078   -0.112454    0.988459
H     -3.725493    1.607009    0.751839
H     -4.483703    0.702745   -0.604744
