13

C     -2.021223    0.076463    0.168725
N     -0.639609    0.451441    0.473786
C      0.290421   -0.521948   -0.106877
C      1.689589   -0.183440    0.295300
O      2.145177   -0.589522    1.397702
O      2.472513    0.619478   -0.528067
H     -2.710524    0.836339    0.593647
H     -2.266143   -0.904516    0.629996
H     -2.186158    0.026035   -0.930473
H     -0.461552    1.380737    0.024149
H      0.217598   -0.515880   -1.217804
H      0.053050   -1.546778    0.256478
H      3.416862    0.871589   -0.261888
