39

C      3.403597   -2.116860    1.207052
C      2.882740   -0.702969    1.237049
C      2.314213   -0.203927    0.116613
C      1.724764    1.183078   -0.000585
C      0.292698    1.256608    0.569960
C     -0.874946    0.922904   -0.421980
C     -2.157204    0.535460    0.402069
C     -3.406204    0.408666   -0.504943
C     -3.101316   -0.854015   -1.336297
C     -1.768476   -1.340742   -0.742352
C     -1.919512   -0.940969    0.704608
C     -0.701362   -0.377199   -1.190463
C      0.044818   -0.562481   -2.288199
C     -1.113719    2.127479   -1.367660
C      3.039545    0.120219    2.494912
H      3.853218   -2.411501    2.177977
H      4.181335   -2.214386    0.420128
H      2.571081   -2.817278    0.983254
H      2.291498   -0.827138   -0.772299
H      1.744713    1.499029   -1.061189
H      2.373190    1.909005    0.533801
H      0.237904    0.629081    1.480284
H      0.132878    2.291910    0.944773
H     -2.333174    1.161292    1.303939
H     -4.309340    0.240592    0.123371
H     -3.601093    1.299790   -1.133964
H     -3.893783   -1.620503   -1.189872
H     -3.011294   -0.619829   -2.420222
H     -1.536740   -2.415030   -0.907155
H     -2.787546   -1.433515    1.203088
H     -1.006717   -1.157794    1.300671
H     -0.002074   -1.501953   -2.829269
H      0.689918    0.220604   -2.667946
H     -1.608942    2.955043   -0.816320
H     -1.739557    1.848095   -2.241113
H     -0.158854    2.513868   -1.777495
H      3.671188    1.009532    2.289897
H      2.051252    0.447661    2.874235
H      3.531305   -0.461828    3.301643
