39

C     -1.205812    3.443766    0.481853
C     -0.238984    2.249375    0.471745
C      1.058375    2.633882   -0.257434
C      2.109043    1.521272   -0.142057
C      1.558942    0.097496   -0.462834
C      0.086548    0.104715   -0.984097
C     -0.904367    0.991113   -0.166287
C     -1.673011    0.167946    0.884195
C     -2.422601   -0.985981    0.220139
C     -1.520917   -1.821886   -0.657187
C     -0.426015   -1.300070   -1.245097
C     -1.918018   -3.236697   -0.979215
C      1.825252   -0.931804    0.644663
C      1.603048   -0.647518    1.937021
C      2.313545   -2.289892    0.278295
O      2.468945   -3.177709    1.161014
O      2.606254   -2.600163   -1.047081
H     -2.138569    3.183419    1.024511
H     -1.466857    3.746863   -0.554956
H     -0.740155    4.309897    0.998906
H      0.019107    2.044032    1.532138
H      1.480487    3.564461    0.182076
H      0.844686    2.837428   -1.330239
H      2.569656    1.568838    0.866830
H      2.934729    1.765087   -0.847154
H      2.162757   -0.231038   -1.337943
H      0.136295    0.574275   -1.993403
H     -1.665373    1.345559   -0.900900
H     -0.986751   -0.239704    1.650462
H     -2.411296    0.813240    1.406777
H     -2.871466   -1.620431    1.014686
H     -3.249474   -0.581622   -0.402916
H      0.151265   -1.920870   -1.925265
H     -2.056329   -3.350773   -2.075363
H     -1.124802   -3.934408   -0.636595
H     -2.869861   -3.510248   -0.477027
H      1.247373    0.317969    2.256570
H      1.779551   -1.377030    2.716954
H      2.934803   -3.522786   -1.305783
