32

C     -4.826707   -0.154469    0.579039
C     -3.343063   -0.137135    0.721297
O     -2.828129    0.098816    1.848142
O     -2.543536   -0.477609   -0.376159
C     -1.151953   -0.309560   -0.422436
C     -0.372139   -1.361900   -0.921415
C      1.026974   -1.228573   -0.971149
C      1.653612   -0.056987   -0.524871
C      0.860109    1.010278   -0.067466
C     -0.542429    0.896910   -0.022525
O     -1.357354    1.967845    0.380245
C     -0.876988    3.236898    0.811839
C      3.133428    0.029051   -0.600089
C      3.868621    0.860475    0.147953
C      5.331208    0.883669    0.034036
O      6.005904    1.660917    0.758394
O     -1.025661   -2.528784   -1.349469
C     -0.367947   -3.677680   -1.873960
H     -5.282267    0.618832    1.232999
H     -5.107690    0.056367   -0.474023
H     -5.214186   -1.153684    0.867008
H      1.637067   -2.040414   -1.345007
H      1.326931    1.940903    0.216969
H     -1.741066    3.878374    1.080438
H     -0.310336    3.729458   -0.006310
H     -0.232056    3.116631    1.707844
H      3.643547   -0.655848   -1.269046
H      3.406933    1.515942    0.873946
H      5.842034    0.237882   -0.669306
H      0.321755   -4.102908   -1.114564
H     -1.127554   -4.443777   -2.131668
H      0.192938   -3.409920   -2.794246
