30

C      3.753462   -1.249352    0.829517
C      3.572242    0.236390    0.520030
C      2.893773    0.469762   -0.837929
C      1.478107   -0.035041   -0.862966
C      0.490362    0.588482   -0.215197
C     -0.919316    0.178646   -0.174013
C     -1.566371    1.030162    0.614494
C     -3.043764    0.986902    0.877269
C     -3.613885   -0.408394    0.564689
C     -3.084510   -0.937104   -0.780908
C     -1.548444   -1.049275   -0.773275
C     -0.608217    2.037715    1.048515
O     -0.863651    3.030788    1.778312
O      0.648512    1.748423    0.538696
H      2.767268   -1.752259    0.917957
H      4.293541   -1.363814    1.792878
H      4.346766   -1.741310    0.029658
H      4.573802    0.717841    0.502612
H      2.984703    0.714113    1.333161
H      2.902926    1.555920   -1.074752
H      3.476856   -0.045107   -1.632012
H      1.260231   -0.922270   -1.444167
H     -3.541525    1.743110    0.233124
H     -3.243525    1.241685    1.939803
H     -4.723241   -0.353798    0.531826
H     -3.329099   -1.115338    1.374886
H     -3.401241   -0.248966   -1.595427
H     -3.525309   -1.936176   -0.986560
H     -1.244948   -1.932546   -0.171428
H     -1.185504   -1.189190   -1.813488
