46

C      2.160138    2.499352   -2.035091
C      2.592733    1.160172   -1.515806
C      1.634457    0.249537   -1.049584
C      2.024817   -1.001672   -0.531464
C      3.392741   -1.333488   -0.488450
C      4.348778   -0.409710   -0.938945
C      3.952023    0.829153   -1.444625
C      3.831016   -2.657761    0.071157
O      1.088666   -1.934586   -0.050112
C     -0.311704   -1.696926    0.100414
C     -0.577468   -0.691219    1.201056
C      0.146947   -0.796418    2.402706
C     -0.054008    0.117819    3.438146
C     -0.989662    1.141312    3.295720
C     -1.737932    1.246280    2.122646
C     -1.553610    0.330816    1.073139
C     -2.406608    0.460099   -0.132735
N     -2.311346    1.507290   -0.895620
O     -1.412685    2.520020   -0.640329
C     -1.353538    3.654735   -1.487112
C     -3.390329   -0.588936   -0.479405
O     -3.977141   -0.538224   -1.595153
N     -3.692650   -1.654389    0.434575
C     -4.581413   -2.748426    0.064156
H      2.975748    2.993728   -2.604610
H      1.289836    2.380276   -2.714275
H      1.871154    3.149927   -1.183390
H      0.590481    0.524679   -1.097046
H      5.404874   -0.645711   -0.896181
H      4.706692    1.529055   -1.781561
H      4.926520   -2.806182   -0.037864
H      3.573772   -2.708511    1.150171
H      3.315230   -3.482090   -0.465134
H     -0.801878   -2.652995    0.378590
H     -0.732067   -1.386538   -0.878054
H      0.877927   -1.584579    2.535720
H      0.517445    0.032026    4.353342
H     -1.143441    1.848833    4.100263
H     -2.475255    2.035476    2.036917
H     -0.560922    4.341187   -1.125386
H     -1.117035    3.338223   -2.524428
H     -2.328962    4.184440   -1.473523
H     -3.280820   -1.657887    1.394226
H     -4.168160   -3.287081   -0.814463
H     -5.587808   -2.349636   -0.182839
H     -4.675555   -3.461472    0.910241
