35

C     -3.632077    1.335615    0.028801
C     -3.704430    0.382624   -1.163858
C     -3.478825   -1.089450   -0.774341
C     -2.106717   -1.386099   -0.142649
C     -0.934670   -1.072579   -1.088753
C      0.407548   -1.626887   -0.576674
C      0.933388   -0.912637    0.683543
C      1.329093    0.579461    0.490739
C      2.722343    0.747769    1.159193
C      3.583270    1.313952    0.076325
C      4.850433    1.703038    0.204774
C      2.790808    1.376197   -1.125285
O      3.192053    1.772928   -2.250944
O      1.509058    0.933141   -0.883410
C      3.091651   -0.649798    1.478115
O      4.187089   -0.992186    1.995717
O      2.107709   -1.556253    1.150034
H     -4.297637    0.986896    0.846796
H     -3.960446    2.348035   -0.287547
H     -2.590426    1.414582    0.404093
H     -2.975524    0.697664   -1.939804
H     -4.716276    0.468131   -1.615951
H     -4.271798   -1.396756   -0.058018
H     -3.601917   -1.719143   -1.682346
H     -2.003519   -0.817103    0.803834
H     -2.082642   -2.466449    0.119006
H     -1.138044   -1.534958   -2.079251
H     -0.855640    0.023220   -1.240532
H      0.292088   -2.710367   -0.355299
H      1.165045   -1.548565   -1.386560
H      0.178100   -0.979443    1.494912
H      0.577959    1.256075    0.954039
H      2.686238    1.391707    2.064437
H      5.353565    1.620038    1.159433
H      5.393152    2.107602   -0.639910
