24

C     -2.631346   -0.109865   -0.036831
C     -1.585751    0.988875    0.259671
C     -0.172943    0.482399    0.691209
C      0.424959   -0.668688   -0.163395
C      1.780219   -1.094244    0.373365
O      1.852816   -2.127433    1.021775
C      3.044176   -0.291287    0.174555
O      2.820369    0.865044   -0.589104
O      0.542912   -0.281408   -1.507210
O     -0.189731    0.123214    2.052354
O     -1.508061    1.920964   -0.791224
O     -2.387726   -0.746430   -1.263740
H     -2.621401   -0.872428    0.768852
H     -3.650404    0.342705   -0.033119
H     -1.984750    1.553746    1.131158
H      0.508952    1.354766    0.607497
H     -0.260072   -1.545415   -0.095085
H      3.782308   -0.924480   -0.361023
H      3.478228   -0.040460    1.170862
H      2.829361    1.636587    0.035245
H      0.680045   -1.111485   -2.034880
H     -0.744040   -0.694681    2.142337
H     -1.152354    1.458995   -1.590824
H     -2.855765   -0.218991   -1.962446
