21

C      2.473347    0.603806   -0.701006
C      1.281289    1.313555   -0.525633
C      0.144821    0.666977   -0.012727
C      0.214433   -0.696706    0.318579
C      1.412966   -1.399130    0.155704
C      2.544284   -0.750815   -0.358833
O      3.741056   -1.442137   -0.532895
O     -0.910690   -1.349778    0.835320
C     -2.237561   -0.830056    0.713346
C     -2.229494    0.675600    0.706411
O     -3.258518    1.310031    1.062363
N     -1.078618    1.382240    0.224749
O     -1.138011    2.727339    0.058315
O     -2.799177   -1.299438   -0.482362
H      3.345306    1.108614   -1.097170
H      1.249793    2.363813   -0.784955
H      1.461545   -2.447300    0.422708
H      3.825081   -2.423491   -0.294626
H     -2.831420   -1.197345    1.581121
H     -1.429162    2.856203   -0.880816
H     -3.781270   -1.171982   -0.407592
