12

C      0.555388    0.423138   -0.331460
C     -0.539497   -0.049992   -0.506441
C     -1.844557   -0.614416   -0.713358
O     -2.349834   -0.610440   -1.866269
N     -2.565912   -1.177296    0.380693
C      1.860441    0.986418   -0.121340
O      2.395465    1.675516   -1.028757
N      2.548262    0.767442    1.108723
H     -2.155511   -1.185336    1.341052
H     -3.514047   -1.588365    0.231098
H      3.496640    1.176446    1.262408
H      2.113161    0.196884    1.867640
