43

C     -2.770883    3.517895    0.508321
C     -3.544751    2.287909    0.878234
O     -4.621971    2.415934    1.518881
C     -3.090786    0.927988    0.521865
C     -1.946027    0.682836   -0.129948
C     -1.488173   -0.691479   -0.444985
C     -2.361197   -1.652716   -0.995322
C     -1.873143   -2.938373   -1.286678
C     -0.531822   -3.269413   -1.079633
C      0.344238   -2.315357   -0.508650
C     -0.141638   -1.023936   -0.212192
O      0.721465   -0.054552    0.325092
C      2.012920   -0.366370    0.853408
C      2.702173   -1.431191   -0.008221
C      1.767539   -2.588691   -0.187643
O      2.192541   -3.759602   -0.002137
C      2.853423    0.884261    0.932145
C      3.677124    1.113892    2.047932
C      4.478333    2.258312    2.110119
C      4.472173    3.176395    1.056812
C      3.668306    2.949537   -0.063227
C      2.865659    1.806677   -0.130201
O     -0.114012   -4.536630   -1.493504
O     -3.691625   -1.293652   -1.272358
C     -4.670661   -2.166365   -1.826779
H     -1.775272    3.497715    0.999076
H     -3.309422    4.431030    0.840255
H     -2.642989    3.566113   -0.593400
H     -3.713720    0.099159    0.835890
H     -1.276984    1.498748   -0.371949
H     -2.522068   -3.686580   -1.721301
H      1.867700   -0.783524    1.875603
H      2.950607   -1.017381   -1.009664
H      3.642539   -1.763950    0.484032
H      3.700086    0.407837    2.868755
H      5.106780    2.431749    2.974104
H      5.093883    4.060968    1.106398
H      3.669735    3.657726   -0.881726
H      2.255925    1.639925   -1.009610
H      0.853181   -4.809021   -1.590551
H     -4.351780   -2.507497   -2.834257
H     -5.629657   -1.617855   -1.925455
H     -4.827749   -3.038473   -1.157529
