27

C      2.752828    1.081473    1.041849
C      2.154276   -0.112954    0.297837
C      0.735507   -0.405513    0.797235
C      0.061259   -1.637353    0.189267
C     -0.227304   -0.245469   -0.379440
C      0.573535    0.142371   -1.625722
C      1.982447    0.193387   -1.153942
O      2.918857    0.439982   -1.898185
C     -1.650406    0.352500   -0.179144
C     -2.669424   -0.439119   -1.006540
C     -2.121244    0.469658    1.280320
H      2.836651    0.848474    2.124684
H      2.114624    1.983326    0.916692
H      3.769951    1.302155    0.653550
H      2.802524   -1.006279    0.431220
H      0.414019   -0.152865    1.828153
H      0.724663   -2.282946   -0.426258
H     -0.727609   -2.076872    0.832676
H      0.451963   -0.620650   -2.423853
H      0.271259    1.142181   -2.002810
H     -1.635093    1.388670   -0.582851
H     -2.353079   -0.477298   -2.070851
H     -2.764348   -1.477407   -0.623224
H     -3.665689    0.050521   -0.961910
H     -3.146323    0.896752    1.314763
H     -1.461248    1.162199    1.843408
H     -2.142596   -0.518925    1.783077
