41

C     -2.213635   -2.593616    1.312021
C     -1.239763   -1.755041    0.461158
C      0.065687   -2.564786    0.283168
C      1.145436   -1.779701   -0.465499
C      1.448841   -0.472255    0.283150
C      0.173862    0.411140    0.373249
C     -0.985721   -0.345379    1.096711
C     -2.299349    0.520516    1.126489
C     -2.205262    1.850637    0.351525
C     -1.492241    1.631705   -0.962024
C     -0.347572    0.929296   -0.952762
C     -2.082465    2.104306   -2.261211
C      2.762136    0.226029   -0.195966
C      2.782687    0.697444   -1.658734
C      3.158338    1.342511    0.736862
O      2.720847    2.512935    0.565484
O      3.978309    1.066799    1.826829
H     -3.219609   -2.133039    1.364474
H     -1.824795   -2.712717    2.346076
H     -2.341941   -3.602596    0.864671
H     -1.693285   -1.615997   -0.545929
H     -0.150641   -3.494785   -0.287109
H      0.462253   -2.867900    1.278149
H      2.062444   -2.405824   -0.520661
H      0.805504   -1.581472   -1.503663
H      1.677221   -0.774313    1.332791
H      0.430195    1.292931    1.000032
H     -0.662392   -0.504537    2.150725
H     -2.572820    0.742425    2.180860
H     -3.153640   -0.034068    0.686258
H     -1.634557    2.590350    0.953845
H     -3.224952    2.263035    0.193551
H      0.121015    0.665977   -1.892717
H     -3.032185    2.653973   -2.094796
H     -2.288784    1.233329   -2.918567
H     -1.367842    2.784581   -2.770719
H      3.567651   -0.538655   -0.119159
H      3.823739    0.958152   -1.946750
H      2.164841    1.606563   -1.805988
H      2.440167   -0.105762   -2.342333
H      4.242276    1.797808    2.476505
