45

C      6.830214   -1.269771    1.006051
C      5.544952   -0.433162    0.957714
C      5.837778    0.936589    0.329582
C      4.440980   -1.201748    0.193936
C      3.056870   -0.518980    0.253173
C      2.713292    0.212032   -1.057013
C      1.449413    1.077988   -0.939052
C      0.170585    0.240831   -0.790591
C     -1.072487    1.127797   -0.812641
O     -2.233684    0.318379   -0.659439
C     -3.527645    0.849107   -0.637896
O     -3.705827    2.089126   -0.788285
C     -4.686289   -0.062302   -0.501110
C     -4.593068   -1.335110   -1.092999
C     -5.684418   -2.204232   -1.092682
C     -6.885291   -1.817116   -0.502860
C     -6.993167   -0.568461    0.110307
C     -5.898811    0.315165    0.142142
C     -6.047952    1.573907    0.908657
O     -5.071479    2.063336    1.537614
O     -7.291514    2.195237    0.987676
H      7.214004   -1.457845   -0.019897
H      7.612858   -0.740367    1.590530
H      6.636373   -2.245234    1.501153
H      5.210144   -0.272506    2.006707
H      4.958964    1.606388    0.431575
H      6.095174    0.828422   -0.745927
H      6.687354    1.426054    0.851999
H      4.754535   -1.374796   -0.859886
H      4.339322   -2.207556    0.659137
H      2.290134   -1.304487    0.426657
H      3.002534    0.183941    1.113082
H      2.584719   -0.529423   -1.875931
H      3.554421    0.876348   -1.345230
H      1.370179    1.695218   -1.860903
H      1.549544    1.773056   -0.076582
H      0.190765   -0.313376    0.171853
H      0.104418   -0.494085   -1.622515
H     -1.022374    1.863912    0.019682
H     -1.127422    1.673118   -1.780421
H     -3.680955   -1.647757   -1.586986
H     -5.602056   -3.175834   -1.562641
H     -7.731967   -2.491478   -0.508957
H     -7.928067   -0.305632    0.590303
H     -7.415051    3.045306    1.524663
