41

C     -2.089494   -1.130508    1.349717
C     -1.485597   -0.353821    0.148334
C     -2.528343   -0.219266   -0.965579
C     -3.794424    0.479529   -0.417305
C     -4.101757    0.046672    1.044574
O     -3.509166   -1.207686    1.335004
O     -3.668343    1.020525    1.964861
O     -4.893129    0.225698   -1.257642
O     -1.986423    0.523992   -2.026644
O     -0.355808   -1.043638   -0.363092
C      0.834573   -0.637251    0.288020
C      1.923680   -1.725961    0.035270
C      2.969882   -1.227948   -0.979020
C      3.582900    0.112214   -0.511692
C      2.516022    0.985066    0.218629
O      1.214193    0.638682   -0.216924
C      2.724889    2.499845    0.048733
O      2.471324    2.906561   -1.270495
O      4.141395    0.773666   -1.621553
O      2.364567   -1.063822   -2.238422
O      2.572964   -2.054464    1.237901
H     -1.744951   -0.679901    2.306368
H     -1.703203   -2.172225    1.339936
H     -1.232485    0.683561    0.480200
H     -2.783446   -1.246659   -1.320491
H     -3.618879    1.578324   -0.428624
H     -5.203244   -0.077708    1.161761
H     -4.305786    1.779298    1.902249
H     -5.086491   -0.747528   -1.212131
H     -2.574336    0.370314   -2.811733
H      0.661985   -0.561014    1.389963
H      1.454108   -2.649687   -0.379745
H      3.790964   -1.978974   -1.061644
H      4.388814   -0.127018    0.224363
H      2.610725    0.796666    1.315616
H      3.769736    2.765920    0.315698
H      2.058174    3.048545    0.753388
H      1.486314    2.990370   -1.361362
H      4.938818    1.269443   -1.298818
H      2.246584   -1.971976   -2.622160
H      1.942698   -2.617836    1.758969
