19

C      2.642110   -0.942775    0.051498
C      1.626116    0.015481    0.592498
O      1.987372    0.859685    1.455877
C      0.199117   -0.076227    0.199165
C     -0.386885   -1.348042    0.052057
C     -1.743171   -1.477296   -0.252258
C     -2.534947   -0.341757   -0.413097
C     -1.970236    0.927704   -0.284346
C     -0.604905    1.077755    0.008183
N     -0.052428    2.400780    0.052616
H      2.383585   -1.232232   -0.989018
H      2.675081   -1.850393    0.689434
H      3.646900   -0.469793    0.044436
H      0.199316   -2.246728    0.197740
H     -2.182981   -2.461067   -0.354263
H     -3.587091   -0.444826   -0.645414
H     -2.595250    1.799680   -0.431589
H     -0.677230    3.236194    0.000215
H      0.975527    2.573856    0.026267
