27

C     -3.667688   -0.385888   -0.422711
C     -2.208934   -0.365475   -0.028993
C     -1.532990   -1.569620    0.266056
C     -0.161464   -1.556776    0.502823
C      0.569234   -0.361761    0.513870
C     -0.101963    0.868845    0.288100
C     -1.500780    0.861219    0.049634
O     -2.168239    2.082461   -0.101764
C      0.654639    2.152677    0.299653
O      0.070510    3.267780    0.334659
C      2.061202   -0.449094    0.769000
C      2.832116   -0.407118   -0.525280
O      2.591458   -1.229333   -1.396634
C      3.915796    0.603622   -0.758502
O     -2.189672   -2.800954    0.346061
H     -3.897437    0.410177   -1.159409
H     -4.303617   -0.260893    0.478292
H     -3.938600   -1.324665   -0.945366
H      0.338546   -2.499043    0.694490
H     -3.174627    2.179911   -0.112816
H      1.732614    2.160075    0.280999
H      2.382730    0.352404    1.466198
H      2.311405   -1.400896    1.286255
H      4.072487    1.244558    0.133945
H      3.640781    1.249300   -1.618561
H      4.868156    0.080820   -0.986782
H     -3.195662   -2.902333    0.344851
