46

C     -3.579945    0.966187   -2.446275
C     -3.480871    0.836126   -0.948006
C     -2.312983    0.524303   -0.345917
C     -1.036380    0.341047   -1.071250
C      0.083432    0.023095   -0.416041
C      1.356846   -0.171275   -1.143657
C      2.538450   -0.421649   -0.546464
C      3.717550   -0.672267   -1.413909
C      4.756530   -1.426963   -1.036531
C      5.896542   -1.653292   -1.952070
C      6.970216   -2.405495   -1.643281
C      8.042667   -2.553646   -2.651546
O      9.067387   -3.247440   -2.417398
C      7.095799   -3.092467   -0.304390
C      2.672180   -0.458559    0.958944
C     -4.734530    0.985767   -0.164638
C     -4.772785    1.438299    1.095659
C     -6.062086    1.579435    1.807758
C     -6.174611    2.034590    3.072566
C     -7.505511    2.145800    3.710814
O     -8.558628    1.821946    3.098895
C     -4.967041    2.443586    3.876307
H     -3.316280    0.001449   -2.929137
H     -4.609165    1.240253   -2.761447
H     -2.896262    1.764368   -2.804954
H     -2.294551    0.368191    0.725747
H     -0.998815    0.465989   -2.146204
H      0.044263   -0.108842    0.657832
H      1.320087   -0.134592   -2.227846
H      3.707390   -0.262093   -2.418385
H      4.749705   -1.898588   -0.063837
H      5.855770   -1.179271   -2.927501
H      7.958783   -2.062580   -3.613278
H      6.259657   -3.810645   -0.168840
H      7.074160   -2.338549    0.510795
H      8.045505   -3.658585   -0.214095
H      2.142276    0.400890    1.420383
H      2.255943   -1.410320    1.350449
H      3.731373   -0.366517    1.275343
H     -5.668899    0.767299   -0.669387
H     -3.855821    1.730214    1.587964
H     -6.959435    1.294855    1.269550
H     -7.588212    2.512397    4.725690
H     -5.252222    2.781667    4.894917
H     -4.443240    3.283430    3.372709
H     -4.274236    1.582451    3.985329
