18

C     -1.980313   -0.340988    0.211051
C     -0.657321    0.411723    0.032794
C      0.469793   -0.490807   -0.535717
C      1.731075   -0.154499    0.289815
C      1.161826    0.582334    1.436954
O      1.820793    0.924238    2.453517
O     -0.176110    0.868725    1.284592
O      2.607165    0.688420   -0.411025
O      0.670207   -0.248084   -1.904389
O     -2.961502    0.513467    0.732766
H     -1.836673   -1.186398    0.917561
H     -2.314862   -0.761583   -0.764684
H     -0.810893    1.291678   -0.631126
H      0.232520   -1.569285   -0.374767
H      2.249469   -1.076063    0.642865
H      3.161251    0.100358   -0.987716
H     -0.106367   -0.646909   -2.376890
H     -3.260059    1.093671   -0.015604
