19

C      1.609824   -0.781462    0.899306
C      1.227284    0.133060   -0.267090
C     -0.233231    0.645016   -0.206601
C     -0.406164    1.667983    0.927963
N     -1.196190   -0.462910   -0.038747
C     -1.342352   -1.252224   -1.266239
H      1.553292   -0.235999    1.863619
H      2.654243   -1.132700    0.762577
H      0.946661   -1.670882    0.937047
H      1.924530    0.998945   -0.286698
H      1.389610   -0.416150   -1.218393
H     -0.442207    1.189734   -1.156163
H     -1.406545    2.145606    0.856609
H      0.359968    2.468894    0.852680
H     -0.325572    1.177415    1.920464
H     -2.140165   -0.056075    0.162990
H     -0.417289   -1.828587   -1.472485
H     -1.589511   -0.603977   -2.135499
H     -2.166187   -1.985686   -1.135338
