13

C     -1.138090   -0.428995    0.103419
C      0.265830   -0.884647   -0.310878
C      1.100358    0.266380   -0.783291
O      1.003500    0.670123   -1.973056
O      1.953927    0.914387    0.104004
C     -1.106101    0.462212    1.311092
O     -0.725171    0.032193    2.388282
H     -1.621418    0.109998   -0.740367
H     -1.758375   -1.321709    0.333868
H      0.771307   -1.389339    0.540975
H      0.176022   -1.627743   -1.132609
H      2.513125    1.703913   -0.196114
H     -1.434916    1.493226    1.231828
