21

C      1.032070    0.660224   -0.048610
C     -0.152775    1.403368    0.075611
C     -1.385516    0.729263    0.092937
C     -1.443199   -0.671269   -0.004542
C     -0.247388   -1.396525   -0.140972
C      0.994953   -0.739136   -0.160727
C      2.252355   -1.508309   -0.304309
O      2.225357   -2.765123   -0.402669
O      3.479392   -0.850185   -0.331498
C     -2.757057   -1.360203    0.013788
O     -3.798131   -0.730161   -0.312596
O     -2.880974   -2.694266    0.400454
C     -0.099219    2.878942    0.187565
O     -1.160654    3.550491    0.298712
O      1.125965    3.540844    0.171072
H      1.985842    1.172902   -0.062716
H     -2.304146    1.294681    0.194411
H     -0.278531   -2.471202   -0.258929
H      4.345148   -1.367103   -0.429102
H     -2.106871   -3.227161    0.775127
H      1.173380    4.549929    0.246992
