41

C      3.304748    1.472272    0.644642
C      1.842735    1.110438    0.307027
C      1.590268   -0.415428    0.447418
C      2.513847   -0.990350    1.536028
C      4.008816   -0.686705    1.211826
O      4.173033    0.406477    0.316269
O      4.730378   -0.434747    2.393586
O      2.300779   -2.368818    1.709708
O      0.246731   -0.685758    0.816247
C     -0.659663   -0.491278   -0.257002
C     -1.679831   -1.645237   -0.243952
C     -2.760002   -1.396799   -1.318089
C     -3.329188    0.035247   -1.231684
C     -2.167107    1.052874   -1.146236
O     -1.321394    0.745051   -0.052350
C     -2.693788    2.485106   -0.986012
O     -1.643056    3.407504   -1.079694
O     -4.222164    0.175980   -0.154709
O     -3.783261   -2.356651   -1.253494
O     -1.034018   -2.860214   -0.518138
O      1.546098    1.507629   -1.007435
H      3.614744    2.373965    0.074697
H      3.395949    1.741409    1.721388
H      1.179674    1.651664    1.025879
H      1.859021   -0.934060   -0.504429
H      2.250682   -0.490759    2.494527
H      4.458242   -1.575077    0.706263
H      4.751294   -1.287216    2.907886
H      2.486506   -2.814660    0.841704
H     -0.153905   -0.502625   -1.253686
H     -2.159985   -1.690982    0.760471
H     -2.277222   -1.499703   -2.314235
H     -3.897107    0.231367   -2.166555
H     -1.595617    1.026873   -2.102617
H     -3.419019    2.705106   -1.797000
H     -3.220811    2.604154   -0.012467
H     -1.152769    3.368292   -0.218061
H     -3.718012    0.056841    0.690685
H     -4.146083   -2.362714   -0.329459
H     -0.603140   -3.155139    0.324478
H      1.383596    2.486672   -0.983422
