31

C      5.408243    1.812908   -0.567127
C      4.585320    0.816784    0.176414
O      3.913332    1.186337    1.177405
O      4.537375   -0.508549   -0.270387
C      3.734863   -1.513543    0.344425
C      2.288067   -1.300741    0.006318
C      1.406804   -0.883859    0.924585
C     -0.023123   -0.614583    0.635257
C     -0.745229    0.202176    1.519961
C     -2.096355    0.477446    1.292655
C     -2.759468   -0.074808    0.192440
C     -2.042406   -0.890539   -0.700599
C     -0.689744   -1.165809   -0.476848
O     -4.113584    0.239251    0.001729
C     -5.049805   -0.572461   -0.651728
O     -4.831855   -1.800838   -0.833745
C     -6.372343    0.001484   -1.031051
H      4.759734    2.378568   -1.267856
H      6.202600    1.294400   -1.143833
H      5.885086    2.520004    0.144015
H      4.042387   -2.502588   -0.053986
H      3.912322   -1.526744    1.442740
H      1.997532   -1.433292   -1.026457
H      1.759851   -0.687947    1.930919
H     -0.259654    0.637219    2.385240
H     -2.634167    1.116753    1.981363
H     -2.515446   -1.297709   -1.583498
H     -0.181410   -1.821032   -1.170078
H     -7.095606   -0.158188   -0.204651
H     -6.270878    1.090370   -1.221842
H     -6.752440   -0.489471   -1.951780
