41

C     -5.232228   -0.463341   -1.236111
C     -4.787710    0.267329    0.037273
C     -4.112021    1.570694   -0.352929
C     -2.781880    1.692714   -0.384221
C     -1.916295    0.598111    0.080152
C     -2.509270   -0.523782    0.670741
O     -3.903203   -0.592304    0.772546
C     -1.712382   -1.556229    1.176082
C     -0.316574   -1.470981    1.075149
C      0.289201   -0.354550    0.471303
C     -0.521657    0.685485   -0.016538
C      1.768162   -0.266066    0.376992
C      2.558855   -0.527104    1.507685
O      3.883420   -0.447337    1.448098
C      4.533436   -0.122656    0.336066
C      3.821388    0.152359   -0.852967
C      2.418256    0.071723   -0.825774
O      1.748120    0.280993   -1.874991
C      4.530850    0.490235   -2.020101
C      5.927287    0.554860   -1.998888
C      6.629812    0.283589   -0.820388
C      5.931043   -0.055283    0.346247
O      8.021132    0.353090   -0.818994
O     -2.312580   -2.663393    1.772674
C     -6.005304    0.569412    0.917824
H     -5.730415   -1.421987   -0.976271
H     -4.351289   -0.692517   -1.873835
H     -5.942300    0.159938   -1.821995
H     -4.718961    2.391893   -0.716083
H     -2.341266    2.615389   -0.742062
H      0.294061   -2.280182    1.456884
H     -0.069449    1.568767   -0.451868
H      2.094958   -0.789762    2.449849
H      4.011313    0.704862   -2.945904
H      6.465518    0.816380   -2.901135
H      6.472876   -0.266600    1.259860
H      8.560096    0.162393    0.017696
H     -1.761972   -3.427341    2.146884
H     -6.508206   -0.375176    1.217317
H     -5.686243    1.100589    1.840366
H     -6.738580    1.205788    0.376255
