43

C      7.272720   -0.094376    1.145233
O      6.158878    0.305591    0.353401
C      4.883996   -0.278512    0.421613
C      3.877176    0.217066   -0.420750
C      2.586729   -0.346611   -0.371856
C      2.292926   -1.388443    0.526006
C      3.313390   -1.891399    1.342942
C      4.594556   -1.339397    1.299360
C      0.952328   -2.012942    0.594159
C     -0.191835   -1.339711    0.427974
C     -1.539000   -1.905050    0.490925
O     -1.852637   -3.108751    0.689308
C     -2.442406   -0.788768    0.277176
C     -1.657265    0.331303    0.108700
O     -0.299253    0.033793    0.196842
C     -2.221506    1.581943   -0.119324
C     -3.622939    1.691850   -0.176620
C     -4.427925    0.532792   -0.001799
C     -3.834551   -0.731307    0.229193
O     -4.580249   -1.905580    0.408020
C     -6.002232   -1.963400    0.378706
O     -4.175934    2.960246   -0.407454
C     -5.572087    3.226642   -0.491300
O      4.198794    1.267357   -1.295582
C      3.281072    1.877554   -2.197485
H      7.526772   -1.155486    0.938610
H      8.147065    0.536927    0.885789
H      7.043436    0.041688    2.223254
H      1.823495    0.002970   -1.051177
H      3.114307   -2.707364    2.027430
H      5.353814   -1.745771    1.953369
H      0.896485   -3.063364    0.855269
H     -1.590763    2.451809   -0.249920
H     -5.503660    0.615984   -0.045528
H     -6.325989   -3.010759    0.547634
H     -6.426821   -1.325600    1.182555
H     -6.377435   -1.630308   -0.612007
H     -5.723797    4.309185   -0.679496
H     -6.070089    2.958941    0.464518
H     -6.020507    2.653849   -1.330398
H      2.908073    1.128654   -2.927666
H      2.431786    2.321692   -1.636293
H      3.801082    2.685065   -2.752290
