37

C      4.495624    1.256228    0.026800
C      3.276632    1.860096    0.403535
C      2.058000    1.180822    0.224390
C      2.096803   -0.101127   -0.336607
C      3.286173   -0.682238   -0.698752
C      4.507860   -0.033688   -0.531997
C      3.005288   -1.933536   -1.201704
C      1.623844   -2.059953   -1.119682
N      1.068528   -0.938640   -0.597675
C     -0.360942   -0.743118   -0.327933
C     -0.637730   -0.871701    1.187056
C     -2.126950   -0.627212    1.461908
C     -2.578788    0.690040    0.798807
C     -2.154787    0.709429   -0.694175
O     -0.752639    0.532940   -0.805351
C     -2.513704    2.047177   -1.362264
O     -3.902941    2.211301   -1.462221
O     -3.967793    0.859318    0.942108
O     -2.336538   -0.565288    2.849250
O     -0.294394   -2.158629    1.633913
H      5.426803    1.788606    0.170485
H      3.279541    2.852881    0.834335
H      1.128338    1.648432    0.517330
H      5.437633   -0.506699   -0.820956
H      3.709000   -2.666882   -1.572685
H      1.060939   -2.934356   -1.420294
H     -0.928664   -1.537952   -0.868788
H     -0.049173   -0.103889    1.742389
H     -2.705871   -1.478236    1.028319
H     -2.073989    1.533921    1.320120
H     -2.686015   -0.097708   -1.251681
H     -2.055614    2.094143   -2.376832
H     -2.093210    2.889035   -0.771522
H     -4.208206    1.613951   -2.194112
H     -4.412789    0.114409    0.459030
H     -3.302354   -0.736642    3.002376
H      0.682085   -2.151800    1.813080
