47

C     -2.862338   -0.616271   -1.479868
C     -2.682623    0.384448   -0.303751
C     -2.033002    1.695039   -0.785558
C     -0.559464    1.454227   -1.207711
C      0.295895    0.706334   -0.123407
C     -0.440810   -0.566952    0.435456
C     -1.852009   -0.137669    0.875231
C     -2.772663   -1.109509    1.616247
C     -4.148939   -0.425893    1.528424
C     -4.011060    0.509596    0.365325
O     -4.908260    1.241226   -0.024049
C      0.339908   -1.183079    1.610891
C      1.773706   -1.528590    1.202211
C      2.499462   -0.278396    0.677854
C      1.777206    0.374646   -0.554713
C      2.545357    1.643870   -0.911603
C      3.876215    1.728424   -0.786757
C      4.663750    0.643343   -0.174732
O      5.920305    0.724437   -0.154176
C      3.988800   -0.567615    0.405092
C      1.816125   -0.546850   -1.805871
H     -1.915403   -0.848772   -2.002612
H     -3.296190   -1.578201   -1.134115
H     -3.556100   -0.187022   -2.234573
H     -2.601828    2.109314   -1.646453
H     -2.060060    2.456716    0.025374
H     -0.550219    0.903977   -2.166989
H     -0.126920    2.452897   -1.413240
H      0.376621    1.426385    0.724375
H     -0.526420   -1.348494   -0.344249
H     -1.702613    0.701736    1.601216
H     -2.789315   -2.098578    1.109356
H     -2.460023   -1.242069    2.674814
H     -4.357072    0.154907    2.452693
H     -4.954694   -1.168740    1.347218
H     -0.162440   -2.115639    1.947496
H      0.360108   -0.476347    2.470212
H      1.770243   -2.335904    0.439474
H      2.307969   -1.919228    2.095829
H      2.482273    0.465886    1.509595
H      2.042233    2.477785   -1.376439
H      4.384774    2.623265   -1.124160
H      4.490443   -0.836626    1.360359
H      4.107703   -1.426040   -0.288885
H      1.377818   -0.040535   -2.689219
H      1.275192   -1.499300   -1.650536
H      2.858359   -0.796142   -2.091075
