33

C     -2.015854    1.765153    1.889083
N     -2.886008    0.880638    1.119411
C     -4.096219    0.425408    1.499122
N     -4.622243   -0.450726    0.616592
C     -3.691620   -0.551168   -0.354393
C     -2.622811    0.263624   -0.048510
C     -1.340625    0.362460   -0.830714
C     -0.249542   -0.562868   -0.261194
C     -0.640777   -2.009788   -0.419151
O     -0.535326   -2.574387   -1.540368
O     -1.163179   -2.722983    0.656169
N      1.027873   -0.316964   -0.937656
C      2.275722   -0.780851   -0.401661
O      2.302770   -1.428771    0.679944
C      3.564120   -0.459073   -1.100132
C      4.202690    0.815506   -0.540876
N      3.401730    1.990304   -0.876782
H     -1.238246    1.166968    2.407405
H     -2.606357    2.320171    2.648832
H     -1.530893    2.505361    1.219733
H     -4.590639    0.715035    2.417530
H     -3.780159   -1.195909   -1.218788
H     -0.983024    1.413561   -0.808060
H     -1.535282    0.108575   -1.896129
H     -0.123807   -0.329147    0.818410
H     -1.288085   -2.290121    1.563427
H      1.041407    0.222301   -1.833620
H      4.270491   -1.306477   -0.963687
H      3.388899   -0.344624   -2.191767
H      4.326721    0.735417    0.562807
H      5.213741    0.926071   -0.990794
H      2.562067    2.005921   -0.253358
H      3.962463    2.837977   -0.630822
