21

C      5.324786    0.299840    0.321343
N      4.185114    0.230297    0.131349
C      2.825168    0.149146   -0.096945
C      2.084894   -0.733305    0.574363
C      0.636808   -0.894859    0.350693
C     -0.053260   -2.097882    0.457230
N     -1.367679   -1.916375    0.201334
C     -1.521039   -0.605077   -0.048302
C     -2.713764    0.061805   -0.325134
C     -2.663227    1.455207   -0.502910
C     -1.438235    2.146100   -0.385663
C     -0.249914    1.449353   -0.101014
C     -0.321820    0.060052    0.040860
H      2.388531    0.777488   -0.860486
H      2.572804   -1.418569    1.257823
H      0.385621   -3.056526    0.702325
H     -2.113022   -2.647712    0.213483
H     -3.651916   -0.473851   -0.391783
H     -3.571651    2.003101   -0.716851
H     -1.414775    3.221571   -0.504322
H      0.676576    1.990195    0.026862
