45

C     -5.792313    2.533803    0.260657
C     -5.477183    1.167599    0.806859
C     -5.099696    1.040603    2.087586
C     -5.555672   -0.043326   -0.096447
C     -4.366441   -0.106444   -1.063399
N     -3.109987   -0.363031   -0.358068
C     -1.858932   -0.412550   -1.056838
C     -0.661406   -0.642992   -0.387783
C      0.502398   -0.677665   -1.076017
N      0.566330   -0.487974   -2.416065
C     -0.603437   -0.263310   -3.086703
N     -1.797080   -0.227213   -2.411402
N      1.517525   -0.896592   -0.231717
C      0.915579   -0.970429    0.984598
N     -0.437181   -0.824384    0.927488
C      2.949391   -0.910936   -0.535737
C      3.543207    0.477855   -0.400678
C      4.992568    0.182721   -0.091351
C      4.936451   -1.235078    0.506679
O      3.632166   -1.758820    0.356548
C      5.333725   -1.254127    1.989744
O      4.474004   -0.449964    2.753266
O      5.760073    0.183951   -1.269089
O      3.381205    1.211643   -1.586859
H     -6.627698    2.986039    0.835945
H     -4.897260    3.186475    0.340318
H     -6.092570    2.476062   -0.806841
H     -4.854997    0.069191    2.506271
H     -5.030476    1.910109    2.734651
H     -6.495416    0.012682   -0.687012
H     -5.604611   -0.984681    0.494637
H     -4.289587    0.848161   -1.628191
H     -4.543803   -0.925300   -1.793585
H     -3.115118   -0.523844    0.674723
H     -0.587593   -0.110644   -4.156974
H      1.452934   -1.115830    1.911735
H      3.104017   -1.296033   -1.570394
H      3.073413    1.010944    0.460173
H      5.388311    0.945035    0.620935
H      5.641672   -1.904283   -0.035652
H      6.370652   -0.870092    2.097123
H      5.328604   -2.302437    2.367861
H      3.677594   -1.002913    2.963992
H      6.711111    0.173121   -0.984409
H      3.645525    2.144897   -1.375846
