42

C     -5.048692    0.319886    0.736041
C     -4.245810    0.173566   -0.522230
C     -2.901367    0.097346   -0.537434
C     -2.137802   -0.048166   -1.834619
N     -0.687344   -0.157868   -1.539985
C     -0.218433    1.083301   -0.846263
C     -1.051002    1.340939    0.452044
C     -2.010273    0.157298    0.688943
C     -1.154098   -1.137097    0.734279
C     -0.452096   -1.346941   -0.659557
C      1.070661   -1.610694   -0.511775
C      1.794680   -0.320139   -0.282634
C      1.233743    0.920540   -0.505039
N      2.115326    1.913699   -0.250994
C      3.255485    1.286734    0.101938
C      4.469944    1.875479    0.450772
C      5.541053    1.025731    0.785209
C      5.377098   -0.377999    0.765142
C      4.139881   -0.947420    0.412157
C      3.098534   -0.080865    0.087340
C     -1.972926   -2.336681    1.145745
O     -2.900313   -2.734165    0.457662
H     -4.777857    1.264454    1.253045
H     -4.865431   -0.544863    1.408060
H     -6.129908    0.350946    0.486791
H     -4.786075    0.123697   -1.463728
H     -2.327806    0.832996   -2.485841
H     -2.483828   -0.953781   -2.379530
H     -0.316775    1.952019   -1.534318
H     -1.640443    2.277782    0.337697
H     -0.400817    1.479442    1.345172
H     -2.563897    0.302070    1.640930
H     -0.385067   -0.996681    1.527611
H     -0.872843   -2.248337   -1.161882
H      1.456497   -2.063054   -1.450345
H      1.268866   -2.317768    0.322246
H      1.944855    2.942549   -0.306451
H      4.587479    2.951315    0.462710
H      6.497706    1.450854    1.059509
H      6.208878   -1.019916    1.024411
H      4.003689   -2.021049    0.396515
H     -1.733469   -2.859159    2.066177
