38

C     -5.103344   -0.128480   -0.099568
C     -6.481937   -0.004858    0.100310
C     -7.026074   -0.162112    1.380905
C     -6.185639   -0.448796    2.459632
C     -4.807047   -0.574015    2.264172
C     -4.247050   -0.403150    0.986591
C     -2.779498   -0.555751    0.828765
C     -2.084321   -0.059258   -0.201938
C     -0.624906   -0.241136   -0.283895
C      0.075356    0.265706   -1.300898
C      1.534206    0.084279   -1.381128
C      2.233852    0.586742   -2.403870
C      3.694104    0.406909   -2.544025
O      4.185476    0.437840   -3.704189
C      4.600725    0.208657   -1.387456
C      4.384195    0.883492   -0.172118
C      5.259383    0.702837    0.903098
C      6.368278   -0.143299    0.773931
C      6.599301   -0.803010   -0.436750
C      5.725921   -0.624191   -1.513952
O      7.246299   -0.331702    1.838853
O     -8.397798   -0.039660    1.590468
H     -4.723252   -0.031406   -1.106704
H     -7.127366    0.206072   -0.742951
H     -6.601217   -0.575962    3.451224
H     -4.174679   -0.796771    3.115165
H     -2.241128   -1.066205    1.620153
H     -2.577937    0.507043   -0.980409
H     -0.115080   -0.796684    0.496077
H     -0.433285    0.822056   -2.080997
H      2.035067   -0.482594   -0.605183
H      1.710308    1.089323   -3.209307
H      3.547698    1.561430   -0.058246
H      5.078363    1.225892    1.833496
H      7.457428   -1.454393   -0.543571
H      5.922233   -1.145469   -2.442900
H      7.106823    0.132923    2.728550
H     -9.033455    0.166490    0.828667
