49

C      5.226890   -0.526286    1.604040
C      4.849874   -0.477674    0.118421
C      5.509722    0.717181   -0.579998
C      3.343304   -0.454306   -0.065083
C      2.564989    0.595061    0.449498
C      1.168836    0.618598    0.273153
C      0.523949   -0.450732   -0.398970
C      1.327554   -1.469674   -0.956243
C      2.710293   -1.477677   -0.780004
C     -1.000699   -0.449238   -0.641428
C     -1.561648   -1.913041   -0.509624
C     -2.968830   -2.035605    0.103948
C     -3.857626   -0.842782   -0.239163
C     -3.301334    0.492244    0.342941
C     -1.716083    0.466959    0.422697
C     -1.078430    1.870594    0.510471
C      0.388213    1.769830    0.778299
O      0.959485    2.708159    1.397932
C     -3.844657    1.663846   -0.515343
C     -3.876123    0.672575    1.773000
C     -1.202722    0.058244   -2.093470
H      4.919757    0.403721    2.127611
H      6.326134   -0.644642    1.713039
H      4.734508   -1.393828    2.093351
H      5.265723   -1.397785   -0.350125
H      5.202346    1.675974   -0.111214
H      5.225224    0.734699   -1.653893
H      6.615506    0.631786   -0.515493
H      3.052978    1.403834    0.978158
H      0.885703   -2.267131   -1.539001
H      3.287831   -2.285832   -1.211495
H     -0.894388   -2.523767    0.138479
H     -1.565906   -2.414243   -1.503173
H     -3.448350   -2.968630   -0.264263
H     -2.887453   -2.126875    1.208951
H     -4.882549   -1.041922    0.145342
H     -3.972436   -0.795104   -1.341487
H     -1.467262   -0.013005    1.399695
H     -1.547613    2.445571    1.336491
H     -1.226703    2.445065   -0.425973
H     -4.946557    1.577539   -0.635469
H     -3.643456    2.644459   -0.033934
H     -3.395133    1.681465   -1.525902
H     -3.512746    1.613090    2.236786
H     -3.582418   -0.171412    2.432496
H     -4.986846    0.717004    1.751724
H     -2.250179   -0.014968   -2.430361
H     -0.610530   -0.557454   -2.804431
H     -0.860142    1.106117   -2.210984
