25

C     -3.376174   -0.035274    0.603252
C     -2.890928    1.172163    0.072053
C     -1.559756    1.217199   -0.339132
C     -0.732021    0.125429   -0.236431
C     -1.186220   -1.087946    0.293472
C     -2.529947   -1.159289    0.714743
O     -0.341582   -2.189927    0.403127
C      0.503600    0.521908   -0.723137
C      0.357354    1.857800   -1.083722
N     -0.907585    2.273903   -0.853458
C      1.778646   -0.267623   -0.773099
C      2.478281   -0.251679    0.592159
N      3.716062   -1.027468    0.563303
H     -4.405226   -0.102365    0.931529
H     -3.531915    2.040263   -0.011798
H     -2.919992   -2.080201    1.128821
H     -0.667015   -3.068892    0.787714
H      1.137711    2.492389   -1.483353
H     -1.292513    3.228721   -1.028579
H      2.451722    0.174237   -1.539578
H      1.560159   -1.311419   -1.081966
H      1.804960   -0.675921    1.368383
H      2.714872    0.796370    0.878964
H      4.346758   -0.630344   -0.170732
H      3.490749   -2.012032    0.290901
