22

C      0.632458   -0.492578    0.762485
C     -0.347068   -0.539023   -0.435033
C     -1.843245   -0.462353   -0.021027
C     -2.243769    0.847180    0.678306
O     -2.208744    1.918154   -0.223922
O     -2.159994   -1.537276    0.826740
O     -0.038947    0.436884   -1.401165
C      2.031944   -0.833643    0.327171
O      2.364250   -2.045156    0.227161
C      3.010457    0.209628   -0.021440
O      2.705296    1.429538    0.062282
O      4.284707   -0.154086   -0.446472
H      0.317369   -1.229186    1.532752
H      0.621126    0.507129    1.244935
H     -0.213511   -1.527768   -0.927984
H     -2.461483   -0.541585   -0.946716
H     -1.582959    1.051094    1.548001
H     -3.282755    0.739294    1.063414
H     -2.457272    2.725825    0.296480
H     -2.203867   -2.351088    0.259332
H      0.104295    1.299761   -0.933736
H      4.971711    0.549253   -0.690691
