45

C      5.019641   -1.316766   -0.218318
C      4.268699    0.015065   -0.091929
C      5.053304    0.971852    0.818426
C      2.836059   -0.232770    0.430382
C      1.954947    1.024300    0.366896
C      0.521715    0.683076    0.691414
C     -0.399809    0.292998   -0.222143
C     -0.057539    0.232491   -1.696560
C     -1.797561   -0.103991    0.254223
C     -2.063962   -1.622431    0.017885
C     -3.568980   -2.008458    0.085751
C     -4.434264   -0.958281    0.789093
C     -4.253348    0.373079    0.114147
O     -5.216619    1.107303   -0.046276
C     -2.887503    0.798756   -0.373857
O     -2.650147    2.139961    0.027572
C     -2.726034    3.014845   -1.076191
C     -1.274536   -2.433823    1.014303
O     -0.325316   -3.109960    0.650619
H      5.106350   -1.813055    0.772356
H      6.039323   -1.147078   -0.625544
H      4.483286   -1.996379   -0.914562
H      4.209739    0.465502   -1.107735
H      4.600468    1.984583    0.804780
H      5.070356    0.594472    1.863419
H      6.099616    1.073080    0.458822
H      2.366201   -1.030614   -0.185193
H      2.874125   -0.603965    1.478763
H      2.306206    1.755668    1.124753
H      2.036179    1.516291   -0.624907
H      0.249765    0.717271    1.742960
H      0.191763    1.247934   -2.068595
H      0.803094   -0.445963   -1.866102
H     -0.903778   -0.147701   -2.302275
H     -1.867840    0.071489    1.354253
H     -1.712638   -1.899924   -1.000655
H     -3.713607   -2.992030    0.585581
H     -3.953990   -2.129302   -0.951786
H     -4.141748   -0.876840    1.857905
H     -5.500356   -1.270420    0.740807
H     -2.881038    0.651351   -1.480468
H     -3.721243    2.954335   -1.570018
H     -2.589233    4.054527   -0.714901
H     -1.915547    2.800087   -1.806797
H     -1.534199   -2.400564    2.067843
