50

C     -0.598613   -3.127003    1.996225
C     -0.769814   -1.627273    1.720713
C     -1.169295   -1.239204    0.253687
C     -0.093592   -1.780781   -0.746885
C      1.244204   -1.114200   -0.541234
C      1.233004    0.216311   -0.387985
C     -0.042105    1.021140   -0.497718
C     -1.261224    0.359664    0.189850
N     -2.386882    0.882956   -0.586278
C     -1.971491    0.934347   -1.985192
C     -0.477976    1.253256   -1.960934
C     -3.704991    0.304924   -0.322012
C     -3.721332   -1.208707   -0.431204
C     -2.490296   -1.968594   -0.122309
O     -3.504151   -1.783143    0.836596
C      0.399493    2.303638    0.157741
C     -0.350631    3.451468    0.431717
C      0.287079    4.537285    1.053554
C      1.653025    4.462629    1.389740
C      2.391102    3.302818    1.103324
C      1.739368    2.240923    0.476812
N      2.314011    0.991722    0.139588
C      2.489484   -1.914780   -0.515144
O      2.440300   -3.141340   -0.224399
O      3.711326   -1.327999   -0.859721
C      4.937283   -2.049088   -0.859184
H     -1.498981   -3.700156    1.695443
H      0.293965   -3.529460    1.477286
H     -0.445612   -3.280098    3.085335
H     -1.543809   -1.246792    2.423028
H      0.178151   -1.118016    2.000695
H     -0.419719   -1.592955   -1.791381
H     -0.003548   -2.884030   -0.671440
H     -1.362448    0.765448    1.222247
H     -2.533147    1.730640   -2.519403
H     -2.151362   -0.041683   -2.488330
H      0.063138    0.591735   -2.672522
H     -0.308088    2.304995   -2.282944
H     -4.040947    0.618407    0.690629
H     -4.442900    0.721757   -1.041122
H     -4.553231   -1.723613   -0.955713
H     -2.462041   -3.027076   -0.459778
H     -1.399830    3.503855    0.172118
H     -0.274365    5.435110    1.276821
H      2.135779    5.302456    1.872262
H      3.439714    3.235752    1.362365
H      3.240754    0.652467    0.477859
H      5.148614   -2.438193    0.159331
H      4.882869   -2.892243   -1.579964
H      5.759760   -1.369276   -1.162172
