47

C     -4.311591    3.043348    0.425996
O     -4.869372    1.930461    1.117334
C     -4.253725    0.673739    1.227281
C     -4.916636   -0.335094    1.940336
C     -4.335652   -1.603165    2.069127
C     -3.093744   -1.871125    1.490938
C     -2.412726   -0.871523    0.779465
C     -3.000321    0.398423    0.645900
C     -1.079507   -1.170185    0.133228
C     -1.201473   -1.299953   -1.408375
O      0.103700   -1.365270   -1.993187
C      1.156283   -0.581556   -1.512548
C      1.018701    0.061636   -0.276869
O     -0.148120   -0.135050    0.466593
C      2.039353    0.887002    0.202777
C      3.220082    1.051650   -0.541675
C      3.364716    0.374295   -1.765907
C      2.334469   -0.439167   -2.249187
C      4.336613    1.913425   -0.009570
C      5.150798    1.196520    1.079185
C      5.928353   -0.017411    0.551994
O      6.821938    0.358341   -0.461241
C     -2.002133   -2.543360   -1.819940
O     -2.060878   -2.646825   -3.216855
O     -6.156804   -0.068992    2.518369
H     -5.008856    3.902779    0.500404
H     -3.342321    3.331146    0.885159
H     -4.168155    2.793857   -0.646577
H     -4.848584   -2.383996    2.616103
H     -2.665931   -2.860519    1.595094
H     -2.476499    1.162992    0.087927
H     -0.668903   -2.124581    0.533052
H     -1.712202   -0.395644   -1.807866
H      1.919659    1.385523    1.156868
H      4.273989    0.476664   -2.345133
H      2.447348   -0.948361   -3.197632
H      3.900475    2.839018    0.425357
H      5.008313    2.239094   -0.833606
H      4.472927    0.867346    1.896654
H      5.871548    1.919555    1.518943
H      6.481547   -0.496023    1.391540
H      5.223684   -0.775097    0.149962
H      7.576384    0.824950   -0.015449
H     -3.032391   -2.502236   -1.399578
H     -1.506593   -3.453373   -1.419567
H     -2.715976   -1.967116   -3.524591
H     -6.661784   -0.776141    3.039767
