28

C      2.171625   -0.380376   -1.915688
C      1.334796    0.231821   -0.818046
C      1.624404    0.036624    0.488158
C      2.796474   -0.770305    0.975035
O      3.991220   -0.116382    0.651180
C      0.108556    1.035745   -1.196721
C     -1.108300    0.132949   -1.443687
C     -1.554464   -0.566685   -0.184715
C     -2.419141   -0.052331    0.710679
C     -3.096644    1.278417    0.486862
C     -2.764308   -0.859790    1.900300
O     -3.617093   -0.457950    2.735494
H      1.751984   -0.142524   -2.915798
H      3.206787    0.017122   -1.873979
H      2.191312   -1.485130   -1.809657
H      0.971268    0.463868    1.245026
H      2.773094   -1.786716    0.523684
H      2.723459   -0.878083    2.079813
H      4.722497   -0.703576    0.975628
H      0.320359    1.606417   -2.126550
H     -0.120285    1.792068   -0.415389
H     -0.842303   -0.635515   -2.201655
H     -1.937831    0.728786   -1.879864
H     -1.121050   -1.543740   -0.000507
H     -3.608550    1.636317    1.403874
H     -3.853439    1.179464   -0.319328
H     -2.359126    2.056131    0.204038
H     -2.285302   -1.816625    2.068077
