32

C      4.930219    0.671152    1.929614
C      4.079761    1.236564    0.838166
C      3.400851    0.434592    0.012769
C      2.546239    0.958416   -1.070877
O      2.435939    2.200912   -1.256815
C      1.766608    0.019710   -1.942376
O      0.386648    0.048309   -1.586884
C     -0.120396   -0.538285   -0.421426
O      0.635991   -1.194262    0.345999
C     -1.557260   -0.407226   -0.100759
C     -1.967176    0.035374    1.181581
C     -3.328227    0.116971    1.489380
C     -4.295242   -0.202086    0.533270
C     -3.902762   -0.617615   -0.738761
C     -2.542470   -0.738392   -1.067094
C     -2.170329   -1.215612   -2.448016
O     -5.651709   -0.105951    0.836421
O     -1.053184    0.428626    2.162698
H      4.306039    0.068551    2.622935
H      5.726420    0.029572    1.496282
H      5.405570    1.496115    2.500434
H      4.023680    2.313402    0.731969
H      3.472390   -0.639252    0.142372
H      2.159287   -1.018412   -1.875664
H      1.866759    0.346121   -2.998814
H     -3.634167    0.451002    2.473106
H     -4.665569   -0.857556   -1.469773
H     -3.038100   -1.675448   -2.967342
H     -1.814551   -0.357632   -3.055596
H     -1.372596   -1.985806   -2.389682
H     -5.970669    0.193645    1.750447
H     -0.057997    0.504500    1.998522
