12

C     -1.089016    0.362104    0.143028
C     -0.497586   -1.036306   -0.126529
C      0.972895   -0.791404   -0.202487
O      1.825506   -1.693352   -0.413218
N      1.325381    0.563200   -0.013781
C      0.109035    1.251153    0.191237
O      0.055176    2.492518    0.393658
H     -1.625118    0.387123    1.115915
H     -1.765733    0.674055   -0.681158
H     -0.868740   -1.446847   -1.089983
H     -0.728124   -1.733781    0.707091
H      2.286324    0.971537   -0.023771
