17

C      0.496752   -0.148145    1.722585
C      0.475062   -0.230991    0.383095
C     -0.713944   -0.850039   -0.318531
C     -1.927873    0.079931   -0.297133
O     -1.639648    1.260824   -0.993844
C      1.643076    0.289238   -0.415313
O      2.777585   -0.487326   -0.148913
H      1.343979    0.293262    2.239147
H     -0.330950   -0.522303    2.317640
H     -0.462914   -1.087610   -1.374857
H     -0.976275   -1.811327    0.174973
H     -2.784702   -0.438364   -0.782327
H     -2.208940    0.315549    0.753816
H     -2.458704    1.818558   -0.940022
H      1.418219    0.256159   -1.504309
H      1.833757    1.350171   -0.137326
H      3.515520   -0.087587   -0.678683
