32

C      2.653007    0.128680    1.538573
C      4.027447   -0.076731    1.385075
C      4.554526   -0.410862    0.134085
C      3.699835   -0.538141   -0.968381
C      2.325288   -0.333198   -0.818731
C      1.786141   -0.003617    0.439612
C      0.297014    0.240960    0.610367
C     -0.125804    1.543076   -0.104054
O     -1.547958    1.688979   -0.084213
C     -2.401473    0.621229   -0.379323
C     -1.920891   -0.698282   -0.327676
C     -0.530369   -0.928277    0.118298
O     -0.070926   -2.102001    0.182398
C     -2.779757   -1.761477   -0.652279
C     -4.107786   -1.506486   -1.008536
C     -4.590632   -0.193732   -1.037472
C     -3.735465    0.870090   -0.718086
O     -5.918592    0.042757   -1.385425
O      0.464164    2.644521    0.531325
O      5.925991   -0.612681   -0.003107
H      2.266877    0.392168    2.515331
H      4.684260    0.025865    2.239563
H      4.099394   -0.794505   -1.941300
H      1.680078   -0.434652   -1.682466
H      0.059169    0.357276    1.691345
H      0.205508    1.505262   -1.167678
H     -2.430138   -2.785691   -0.618951
H     -4.765275   -2.330746   -1.254260
H     -4.101573    1.888693   -0.744803
H     -6.298731    0.981607   -1.416119
H      0.258009    3.435308   -0.031964
H      6.338661   -0.855391   -0.896242
