48

C     -1.049432    0.030355   -0.719385
C     -2.066871    1.145184   -1.045606
C     -3.523895    0.686979   -0.778267
C     -3.709144    0.048361    0.618768
C     -2.664859   -1.054342    0.896560
C     -1.214154   -0.536539    0.712103
N     -0.271797   -1.646413    0.990332
C      1.188217   -1.381818    1.003747
C      1.776271   -1.252453   -0.375518
C      2.972086   -0.665941   -0.603884
C      3.763039    0.048401    0.487248
C      3.219467   -0.181064    1.931543
C      1.676469   -0.275355    1.978085
O      1.112629    0.988191    1.724689
O      3.804107   -1.314759    2.530723
O      3.778173    1.422598    0.194151
C      3.514369   -0.643585   -2.013181
O      2.723644    0.183123   -2.824311
O     -2.909477   -2.150917    0.049407
O     -3.649050    1.042334    1.609677
O     -3.896924   -0.232613   -1.774763
C     -1.699927    2.474447   -0.343609
O     -2.563583    3.507117   -0.737876
H     -1.165456   -0.795240   -1.455611
H     -0.038027    0.451174   -0.866596
H     -1.979752    1.343719   -2.138036
H     -4.196021    1.573852   -0.851299
H     -4.723476   -0.415957    0.647453
H     -2.798922   -1.373752    1.958082
H     -1.078058    0.264876    1.461654
H     -0.512337   -2.043704    1.929870
H      1.639508   -2.325044    1.383308
H      1.256938   -1.742303   -1.195129
H      4.808903   -0.337895    0.444140
H      3.518426    0.688174    2.558135
H      1.378444   -0.568780    3.008362
H      1.324692    1.244058    0.791426
H      3.835463   -2.044991    1.859968
H      4.555169    1.813028    0.673837
H      4.550449   -0.244376   -2.017647
H      3.562477   -1.678809   -2.422973
H      1.961139   -0.367647   -3.141496
H     -2.554952   -2.959072    0.504850
H     -4.060523    0.661314    2.429269
H     -4.889000   -0.271561   -1.779304
H     -0.650095    2.754589   -0.590451
H     -1.749593    2.375250    0.757773
H     -2.304753    3.757810   -1.662936
