31

C      4.622060   -0.808807    1.033536
C      3.135863   -1.066466    0.803011
C      2.465879    0.130377    0.118555
C      0.973240   -0.132906   -0.110791
C      0.298743    1.062012   -0.793527
O     -1.059155    0.770555   -1.070329
C     -1.908284    1.158158    0.000237
C     -2.454755    2.556439   -0.278897
O     -3.005951    0.268909    0.070231
C     -2.596680   -0.970135    0.612262
C     -3.789664   -1.912026    0.658241
H      5.138904   -0.638130    0.065122
H      4.763098    0.078843    1.686433
H      5.079609   -1.690619    1.529545
H      2.648211   -1.259106    1.783566
H      3.022237   -1.972900    0.169107
H      2.961217    0.319434   -0.859449
H      2.585940    1.033742    0.756653
H      0.848510   -1.033331   -0.751524
H      0.480791   -0.327456    0.866301
H      0.431141    1.989379   -0.188232
H      0.806395    1.247470   -1.764077
H     -1.386958    1.202158    0.990427
H     -2.997729    2.569078   -1.248061
H     -3.154710    2.857272    0.529498
H     -1.626889    3.294946   -0.321417
H     -1.808724   -1.440767   -0.017761
H     -2.215740   -0.842286    1.650941
H     -3.480192   -2.890019    1.083719
H     -4.185439   -2.074142   -0.366838
H     -4.590971   -1.479674    1.294389
