49

C     -1.844826    1.767814   -0.775670
C     -1.352829    0.693473    0.231787
C     -1.943000    1.084601    1.604035
C     -3.185653    0.727179    1.972246
C     -3.919243   -0.230418    1.144390
C     -3.324890   -0.879558    0.102936
C     -1.848524   -0.747340   -0.155413
C     -1.456586   -1.170529   -1.578147
C     -0.075746   -0.661944   -2.030184
C      0.894859   -0.182465   -0.905554
C      0.210630    0.620945    0.301793
C      0.917634    1.976149    0.591557
C      2.462940    1.842418    0.585263
C      3.002431    0.766529   -0.411116
C      2.009043    0.654795   -1.553576
C      3.078774   -0.708425    0.110128
C      1.724112   -1.345685   -0.315319
C      3.323905   -0.857035    1.635041
O      4.509197   -0.210693    2.017666
O      4.130219   -1.347412   -0.581164
C     -4.262239   -1.761313   -0.391898
C     -5.397843   -1.545370    0.375954
O     -5.159630   -0.626313    1.291011
H     -2.917975    1.619903   -1.020031
H     -1.742422    2.787229   -0.344719
H     -1.271949    1.766329   -1.718763
H     -1.411647    1.770578    2.247782
H     -3.619126    1.100504    2.890993
H     -1.363007   -1.470323    0.539753
H     -2.219030   -0.805773   -2.302318
H     -1.468412   -2.281762   -1.631099
H      0.407111   -1.453243   -2.644522
H     -0.233888    0.165205   -2.753867
H      0.396025    0.048422    1.237767
H      0.624696    2.724218   -0.174786
H      0.610452    2.387167    1.574598
H      2.877042    2.827939    0.278296
H      2.838281    1.691968    1.614886
H      3.995159    1.097192   -0.791069
H      2.474780    0.115574   -2.411679
H      1.657399    1.639401   -1.933395
H      1.201358   -1.865088    0.517734
H      1.903979   -2.124054   -1.090275
H      2.478873   -0.439072    2.218676
H      3.374896   -1.936363    1.908086
H      5.258062   -0.810466    1.763323
H      4.133663   -2.305982   -0.319529
H     -4.134332   -2.487080   -1.183770
H     -6.342722   -2.059501    0.262164
