43

C     -3.985449   -1.646555   -0.747023
C     -3.402925   -0.365030   -1.368138
C     -4.154118    0.917448   -0.944275
C     -3.758777    1.338123    0.476990
C     -2.236860    1.368790    0.625687
C     -1.644360    0.022047    0.171693
O     -1.998385   -0.256851   -1.176359
O     -0.234839    0.107741    0.260365
C      0.369884   -1.175988    0.219039
C      0.699296   -1.636170    1.644069
C      1.624164   -1.118510   -0.673394
C      2.674156   -0.097731   -0.201584
C      3.812267    0.025329   -1.224991
C      4.884822    1.028000   -0.780631
C      5.693610    0.502548    0.364992
O      6.567145   -0.382782    0.164791
O      5.471841    0.984867    1.651347
O     -1.915685    1.610123    1.971167
O     -3.843871    1.947753   -1.847635
H     -5.007142   -1.825589   -1.143597
H     -4.056727   -1.579937    0.356547
H     -3.349584   -2.516867   -1.014626
H     -3.560247   -0.474618   -2.463467
H     -5.251595    0.719481   -0.973190
H     -4.194698    0.626754    1.212461
H     -4.176206    2.343793    0.701872
H     -1.832349    2.187432   -0.015626
H     -2.019007   -0.770101    0.861263
H     -0.290909   -1.952874   -0.238295
H      1.300419   -2.569979    1.623007
H      1.259057   -0.849850    2.193560
H     -0.240990   -1.840828    2.198427
H      1.298157   -0.854142   -1.703830
H      2.088167   -2.128613   -0.721348
H      3.094066   -0.426283    0.772780
H      2.198786    0.898602   -0.067297
H      4.278670   -0.970826   -1.397208
H      3.389728    0.372363   -2.193729
H      4.412221    1.993227   -0.498656
H      5.567716    1.228379   -1.633637
H      6.004357    0.631707    2.436792
H     -0.982457    1.947410    1.989694
H     -4.551352    2.638206   -1.752709
