20

C     -2.594564   -0.233161   -0.516996
C     -1.732653    0.049019    0.723615
C     -0.307946   -0.536077    0.618424
C      0.550707    0.088367   -0.493486
C      1.923326   -0.527503   -0.510908
O      2.057936   -1.701293   -0.823095
C      3.129883    0.294456   -0.171655
O     -1.701824    1.421198    1.031926
H     -2.214599    0.312666   -1.405406
H     -2.605983   -1.321738   -0.737522
H     -3.637797    0.097002   -0.327114
H     -2.225627   -0.466046    1.576786
H     -0.384365   -1.633527    0.452399
H      0.204218   -0.383927    1.594282
H      0.642324    1.182914   -0.328335
H      0.081474   -0.075940   -1.485892
H      3.016875    0.718066    0.848217
H      3.233478    1.123303   -0.902701
H      4.049971   -0.327532   -0.201016
H     -1.484833    1.919751    0.201967
