41

C     -2.249806    0.808426   -1.634477
C     -2.285956    0.595575   -0.095071
C     -1.665081    1.798783    0.638940
C     -0.131025    1.865191    0.399206
C      0.613320    0.514622    0.665352
C     -0.102686   -0.688860   -0.019068
C     -1.578166   -0.669439    0.408298
C     -2.516147   -1.824011    0.052939
C     -3.913431   -1.233373    0.315418
C     -3.693018    0.248674    0.261654
O     -4.580445    1.071094    0.428798
C      0.609863   -1.974337    0.402049
C      2.041916   -1.963825   -0.137367
C      2.756025   -0.630056    0.006748
C      2.101417    0.532699    0.301548
C      2.882902    1.804369    0.436131
C      4.197081    1.865418    0.201613
C      4.937080    0.664178   -0.184964
O      6.172851    0.724076   -0.422015
C      4.211070   -0.604170   -0.283960
O      4.822859   -1.656054   -0.614692
H     -2.631048   -0.080905   -2.178989
H     -1.235188    1.026791   -2.018191
H     -2.893456    1.672008   -1.908796
H     -2.135181    2.744220    0.290677
H     -1.858320    1.717268    1.731938
H      0.251877    2.642408    1.092129
H      0.079994    2.214171   -0.633322
H      0.574069    0.357013    1.767432
H     -0.025752   -0.608668   -1.124521
H     -1.574519   -0.654436    1.528047
H     -2.331835   -2.712408    0.695266
H     -2.401231   -2.110007   -1.014939
H     -4.276200   -1.520896    1.325696
H     -4.637484   -1.555544   -0.462942
H      0.082757   -2.862169   -0.008962
H      0.625006   -2.065275    1.511029
H      2.017830   -2.225969   -1.217667
H      2.619478   -2.754822    0.388205
H      2.398178    2.720225    0.735973
H      4.720403    2.808020    0.306486
