50

C      2.251725   -0.569354    1.634195
C      2.060425   -0.320170    0.114476
C      2.850008   -1.404204   -0.689421
C      4.368412   -1.263464   -0.557614
C      4.789270    0.134191   -0.876287
O      5.950711    0.354585   -1.310829
C      3.882837    1.260672   -0.619190
C      2.618376    1.076997   -0.195422
C      1.810654    2.285279    0.212478
C      0.375322    2.175527   -0.289509
C     -0.287196    0.866648    0.181293
C      0.540176   -0.364838   -0.327479
C     -0.188074   -1.739481   -0.093370
C     -1.676800   -1.721012   -0.542761
C     -2.448572   -0.511595    0.034518
C     -1.716715    0.762600   -0.395768
C     -2.713914    1.883947   -0.131983
C     -4.080866    1.242498   -0.431895
C     -3.827240   -0.271750   -0.614738
O     -4.838576   -1.043386   -0.018390
C     -2.625994   -0.648903    1.582166
O     -0.098502   -2.142350    1.246992
H      2.178347   -1.646565    1.887624
H      3.260703   -0.239041    1.962906
H      1.511887   -0.010049    2.240290
H      2.571174   -2.424966   -0.350807
H      2.593670   -1.333858   -1.770243
H      4.862224   -1.972906   -1.256639
H      4.691129   -1.517121    0.474200
H      4.267320    2.262840   -0.769378
H      1.813799    2.367031    1.320801
H      2.248094    3.224331   -0.193144
H     -0.194572    3.047228    0.098596
H      0.372035    2.232593   -1.401081
H     -0.326207    0.890386    1.287323
H      0.558742   -0.255056   -1.437674
H      0.317182   -2.502030   -0.729191
H     -2.176064   -2.668545   -0.244024
H     -1.702271   -1.686139   -1.654766
H     -1.599094    0.736652   -1.508502
H     -2.658843    2.214988    0.928126
H     -2.527753    2.754324   -0.798334
H     -4.779507    1.432287    0.412414
H     -4.518956    1.670568   -1.359767
H     -3.775089   -0.502278   -1.705929
H     -5.649710   -0.924268   -0.578031
H     -3.082914   -1.631485    1.826743
H     -3.293329    0.137857    1.991320
H     -1.678605   -0.580742    2.144320
H     -0.278863   -3.118472    1.271387
