34

C      3.004302    0.366064    1.214238
C      1.740418    0.118928    1.990817
C      0.541266    0.139036    1.414210
N      0.410160    0.355904   -0.000027
C      1.585367    0.431377   -0.825335
C      2.819731    0.421101   -0.290023
C      4.015846    0.499291   -1.173656
O      3.881309    0.434420   -2.426088
N      5.332664    0.647247   -0.633914
C     -0.915241    0.350833   -0.634001
C     -1.388727   -1.071431   -0.888152
C     -2.891450   -0.934710   -0.800665
C     -3.074616    0.282841    0.119107
O     -1.859599    1.004562    0.186653
C     -3.494843   -0.140329    1.534475
O     -3.676436    0.986483    2.349232
O     -3.479417   -0.714976   -2.063187
O     -0.961504   -1.529033   -2.144950
H      3.437950    1.328647    1.558659
H      3.716757   -0.449587    1.460645
H      1.810112   -0.038797    3.059874
H     -0.337719   -0.020623    2.025782
H      1.461715    0.493658   -1.900355
H      6.155718    0.681840   -1.275609
H      5.506601    0.746531    0.389610
H     -0.871066    0.909415   -1.597381
H     -1.025215   -1.749028   -0.079334
H     -3.332625   -1.861286   -0.370612
H     -3.865441    0.952454   -0.286588
H     -2.737258   -0.826710    1.978389
H     -4.459161   -0.689524    1.481706
H     -2.776496    1.254609    2.671539
H     -3.096286    0.118280   -2.444927
H     -1.176822   -2.497483   -2.177475
