24

C     -2.484536   -1.150975    1.093323
C     -3.362367   -0.085788    0.792171
C     -2.923418    1.001917    0.015003
C     -1.606806    0.985701   -0.443568
C     -0.756121   -0.050483   -0.154162
C     -1.160216   -1.139445    0.618638
C      0.455367    0.250417   -0.745083
C      0.278237    1.486365   -1.359846
N     -0.987936    1.926526   -1.178116
C      1.732507   -0.530385   -0.660210
C      2.476255   -0.206404    0.641474
N      3.724617   -0.959108    0.741024
H     -2.832347   -1.980754    1.694692
H     -4.378423   -0.104785    1.164233
H     -3.586732    1.825417   -0.215836
H     -0.481176   -1.949997    0.849048
H      1.037319    2.037031   -1.900065
H     -1.393941    2.823238   -1.526728
H      1.503339   -1.616750   -0.705346
H      2.374680   -0.278651   -1.531874
H      1.833857   -0.455917    1.514241
H      2.705375    0.881066    0.681816
H      4.325744   -0.726872   -0.082993
H      3.506724   -1.981363    0.698162
