26

C      4.276005   -0.445651   -0.457483
O      3.006562   -0.113758    0.091472
C      1.842854   -0.060671   -0.681490
O      1.879377   -0.324049   -1.915271
C      0.535434    0.270947   -0.024723
C     -0.284087   -1.018002    0.202773
C     -1.649836   -0.655939    0.821550
C     -2.330336    0.460526    0.002405
C     -1.350055    1.632249   -0.206116
O     -0.174043    1.176435   -0.854971
O     -1.966692    2.600248   -1.010425
O     -3.511217    0.894638    0.630659
O     -2.480239   -1.787185    0.912331
O      0.417557   -1.876000    1.066359
H      4.555147    0.289635   -1.241658
H      4.246284   -1.466705   -0.893471
H      5.039049   -0.420421    0.347254
H      0.767008    0.746734    0.957434
H     -0.443831   -1.514016   -0.784934
H     -1.472855   -0.280976    1.854575
H     -2.602150    0.056605   -0.998213
H     -1.102000    2.096089    0.779855
H     -1.348974    3.376930   -1.037642
H     -3.261389    1.274906    1.513365
H     -2.629404   -2.127114   -0.008698
H      0.041833   -2.785455    0.935064
