26

C      3.044248    0.397114    0.702437
C      1.547731    0.624359    0.486066
C      0.965144   -0.270386   -0.631867
C      0.990242   -1.764868   -0.260043
C     -0.433053    0.207675   -1.115445
C     -1.483862    0.568462   -0.030415
C     -1.908164   -0.640526    0.815670
C     -2.720003    1.184907   -0.702013
H      3.234010   -0.626881    1.086148
H      3.423285    1.123466    1.451950
H      3.601879    0.546523   -0.246432
H      1.017341    0.440462    1.444950
H      1.402083    1.692289    0.212290
H      1.630997   -0.167075   -1.518903
H      0.643750   -1.941198    0.776170
H      2.027780   -2.153496   -0.334829
H      0.365286   -2.359723   -0.959076
H     -0.261151    1.120291   -1.729255
H     -0.863111   -0.545178   -1.812513
H     -1.067912    1.344208    0.647665
H     -2.100793   -1.526855    0.174110
H     -1.128642   -0.878718    1.564700
H     -2.831880   -0.413063    1.389748
H     -2.433468    2.083439   -1.289308
H     -3.458312    1.504232    0.064498
H     -3.203428    0.450542   -1.381986
