20

C     -1.303598   -0.390182    0.401359
C     -0.258462   -0.806751   -0.654503
C      0.984098    0.125333   -0.717044
C      1.874262    0.081053    0.546557
O      1.289587    0.786003    1.607938
O      1.752887   -0.187203   -1.852509
O      0.152126   -2.128485   -0.409850
C     -1.864476    0.973712    0.135505
O     -1.560912    1.940240    0.884741
O     -2.708931    1.175450   -0.951672
H     -2.146837   -1.113478    0.374794
H     -0.873557   -0.442934    1.423153
H     -0.750511   -0.760624   -1.655609
H      0.636158    1.171586   -0.854566
H      2.048363   -0.968567    0.863371
H      2.872188    0.519811    0.315662
H      1.404208    1.751480    1.406944
H      2.128865   -1.097097   -1.721922
H     -0.585360   -2.722125   -0.709693
H     -3.090099    2.092779   -1.149978
