40

C      4.450803    2.118342    0.693783
C      4.715122    1.550448   -0.695549
C      3.897608    0.319377   -0.920584
O      4.393690   -0.814985   -0.679272
O      2.574481    0.445239   -1.357919
C      1.680610   -0.659037   -1.483666
C      1.188538   -1.114656   -0.103649
C      0.208983   -2.272255   -0.204719
C     -0.615346   -2.111748    1.051199
C     -0.455365   -0.621055    1.382454
O      0.534892   -0.053026    0.549865
N     -1.724022    0.086186    1.194717
C     -2.646642    0.382138    2.146468
N     -3.771187    0.965976    1.646918
C     -3.517877    1.015663    0.325474
C     -4.314638    1.489936   -0.710521
N     -3.822454    1.394971   -1.982152
C     -2.588525    0.849365   -2.232003
N     -1.815271    0.384279   -1.205207
C     -2.303616    0.485432    0.054584
N     -5.604321    2.053240   -0.470716
O     -0.094687   -2.900816    2.091473
O      0.886584   -3.501535   -0.251755
H      4.726873    1.375603    1.472762
H      5.060739    3.034042    0.843269
H      3.377329    2.383687    0.804515
H      4.452498    2.311300   -1.461374
H      5.795857    1.311841   -0.799279
H      0.814202   -0.335124   -2.098608
H      2.182153   -1.497765   -2.014641
H      2.063791   -1.421332    0.513249
H     -0.446982   -2.152008   -1.099749
H     -1.675693   -2.394790    0.849045
H     -0.128377   -0.494093    2.439165
H     -2.511597    0.164770    3.198178
H     -2.225541    0.785033   -3.248433
H     -5.987030    2.127797    0.498050
H     -6.181879    2.399523   -1.268556
H     -0.777209   -2.900844    2.812485
H      0.203506   -4.189114   -0.466436
