40

C     -3.525457    2.813512   -1.915356
O     -4.444298    1.836495   -1.436794
C     -4.078939    0.684642   -0.723545
C     -2.739596    0.386486   -0.404432
C     -2.417414   -0.785228    0.309877
C     -3.453326   -1.635760    0.726237
C     -4.785662   -1.343444    0.409757
C     -5.091338   -0.189812   -0.315914
O     -5.813539   -2.193311    0.812416
C     -1.023483   -1.130777    0.679439
C      0.049309   -0.711526   -0.008447
C      1.441231   -1.042354    0.383341
C      2.489453   -0.132058    0.106384
C      3.837090   -0.504126    0.360691
C      4.104475   -1.756337    0.945552
C      3.062426   -2.633671    1.241523
C      1.745523   -2.290732    0.951352
O      5.410722   -2.152788    1.235355
O      4.942482    0.315629    0.061805
C      4.917530    1.556156   -0.635249
O      2.193391    1.131184   -0.416484
C      1.550045    2.140428    0.356557
H     -2.808101    2.348534   -2.624255
H     -4.086431    3.608373   -2.448100
H     -2.979421    3.273412   -1.064694
H     -1.959775    1.077918   -0.686354
H     -3.225791   -2.533395    1.289003
H     -6.123031    0.033051   -0.558316
H     -5.626754   -3.038062    1.340058
H     -0.885572   -1.767182    1.544553
H     -0.081143   -0.083854   -0.879450
H      3.278617   -3.600393    1.678827
H      0.970943   -3.021757    1.142388
H      6.212389   -1.563770    1.045265
H      4.428065    1.434196   -1.624404
H      5.961007    1.892110   -0.803952
H      4.404322    2.328920   -0.027366
H      0.527844    1.828144    0.650223
H      1.477247    3.067787   -0.247398
H      2.144955    2.353357    1.269716
