40

C      4.184666    1.163126   -0.545391
C      2.760518    0.816983   -0.995290
C      1.812327    0.540478    0.207285
C      1.151322   -0.854141    0.052945
C      0.402617   -1.346532    1.311794
C     -0.877038   -2.072321    0.931996
C     -0.787999   -3.225024    0.244084
C     -2.255206   -1.569846    1.354276
C     -3.020734   -0.896452    0.186211
C     -2.911378    0.638394    0.100338
C     -1.559870    1.102702   -0.401250
C     -0.621794    1.466319    0.504852
C      0.838596    1.767765    0.237640
O      1.038334    2.469607   -0.973133
C      2.122931    1.978756   -1.661548
O      2.510049    2.464781   -2.755124
C     -1.335500    1.173457   -1.892700
O     -2.176856   -0.714937    2.468152
H      4.620493    0.305840    0.006226
H      4.821810    1.362778   -1.432753
H      4.186233    2.066548    0.104139
H      2.799632   -0.034108   -1.713119
H      2.392109    0.522331    1.161240
H      1.949409   -1.598782   -0.158646
H      0.496084   -0.867674   -0.839582
H      0.201610   -0.513085    2.009920
H      1.056698   -2.045793    1.879865
H     -1.678743   -3.785924   -0.026594
H      0.176889   -3.626965   -0.044042
H     -2.852618   -2.467957    1.638633
H     -4.100448   -1.131348    0.315120
H     -2.725542   -1.349314   -0.787182
H     -3.694164    1.003289   -0.603554
H     -3.165797    1.102924    1.080371
H     -0.896885    1.436974    1.554889
H      1.180271    2.435849    1.057352
H     -1.186205    2.224850   -2.213827
H     -0.463083    0.567863   -2.198799
H     -2.213016    0.776699   -2.445077
H     -2.179720   -1.288108    3.280284
