19

C     -0.056652   -1.307763    0.605310
C      1.249149   -0.880870   -0.088141
C      1.573753    0.608670    0.083152
C      0.429697    1.516913   -0.368891
O     -0.623258    1.442730    0.571845
C     -1.688357    0.639639    0.101065
C     -1.303699   -0.833952   -0.161299
H     -0.075356   -2.419001    0.635876
H     -0.080120   -0.951019    1.658359
H      1.208861   -1.133732   -1.170391
H      2.086711   -1.466539    0.349157
H      1.813269    0.817754    1.148957
H      2.479313    0.844369   -0.516897
H      0.128305    1.281461   -1.417541
H      0.802652    2.562881   -0.377920
H     -2.145015    1.088454   -0.809794
H     -2.479570    0.655167    0.880646
H     -2.163674   -1.476525    0.129063
H     -1.156011   -0.988639   -1.252556
