44

C     -4.259924    1.456330    1.276680
C     -2.974667    0.986477    0.646081
C     -2.964218    0.725349   -0.679257
C     -1.749687    0.265390   -1.452331
C     -1.364416   -1.171133   -1.128683
C     -0.055952   -1.509043   -0.686868
C      0.236862   -2.835422   -0.344664
C     -0.729693   -3.828708   -0.458203
C     -2.006014   -3.530257   -0.933968
C     -2.326155   -2.199115   -1.293372
O     -3.577158   -1.865414   -1.823051
O     -2.921253   -4.581224   -1.028678
C      1.044885   -0.516433   -0.611856
C      1.505909    0.096947   -1.780104
O      2.481800    0.991345   -1.734521
C      3.093957    1.334333   -0.606935
C      4.088093    2.314284   -0.658640
C      4.746260    2.715463    0.504498
C      4.430833    2.113422    1.721557
C      3.465964    1.101618    1.800654
C      2.743789    0.724171    0.628291
C      1.669286   -0.200018    0.607667
O      1.232489   -0.722514    1.666830
O      3.294107    0.502572    3.052195
O      5.723687    3.707350    0.461244
C     -1.742372    0.822592    1.501216
H     -4.144861    1.627616    2.367181
H     -4.582209    2.409434    0.806325
H     -5.051828    0.691892    1.127670
H     -3.879749    0.871254   -1.247735
H     -0.933718    0.990261   -1.268297
H     -1.976817    0.322590   -2.538346
H      1.228620   -3.106091   -0.002052
H     -0.480020   -4.846721   -0.186310
H     -4.309321   -2.531470   -2.020524
H     -3.883855   -4.473312   -1.312911
H      1.059973   -0.146673   -2.736203
H      4.339699    2.774226   -1.606506
H      4.964207    2.414022    2.615149
H      2.866087   -0.397339    3.207120
H      5.978486    4.162946   -0.407353
H     -1.450483   -0.246442    1.535014
H     -1.923381    1.156110    2.543908
H     -0.907242    1.429336    1.093352
