17

C     -2.314279    0.101460   -0.767434
C     -1.100074    0.517742    0.057557
C     -0.165375   -0.673000    0.305838
C      1.042495   -0.276106    1.162276
O      1.835143    0.717445    0.512554
C      2.687236    0.441262   -0.561203
O      2.836085   -0.733891   -0.990911
H     -1.992807   -0.292108   -1.755301
H     -2.971026    0.981478   -0.932474
H     -2.895194   -0.679732   -0.232318
H     -0.555033    1.318096   -0.488420
H     -1.449808    0.929386    1.029383
H      0.184933   -1.084901   -0.665025
H     -0.724061   -1.474971    0.836087
H      0.686662    0.130227    2.132981
H      1.661804   -1.172937    1.382215
H      3.233297    1.250550   -1.025807
