20

C      2.125030    0.405896    0.178012
C      1.068417    0.110338   -0.892790
C     -0.366105   -0.124757   -0.334878
C     -1.317910   -0.387005   -1.518570
C     -0.387327   -1.363627    0.589415
C     -0.861776    1.104718    0.405481
O     -0.760622    2.244318   -0.125845
O     -1.470545    0.987735    1.653400
H      1.823310    1.266901    0.809928
H      2.297343   -0.483121    0.818838
H      3.086319    0.659182   -0.316741
H      1.397925   -0.783935   -1.466745
H      1.055400    0.962820   -1.607675
H     -1.318839    0.473074   -2.223068
H     -2.358967   -0.540953   -1.159523
H     -1.005378   -1.294125   -2.080082
H      0.048123   -2.245948    0.072561
H     -1.429065   -1.616509    0.884092
H      0.189384   -1.180070    1.520344
H     -1.814716    1.805067    2.142886
