17

C      1.048902   -1.142837    0.515538
C      0.134518    0.032862    0.111364
C     -0.031795    0.037255   -1.421777
C     -1.216353   -0.157438    0.787049
O     -1.566951    0.590168    1.740076
O     -2.068666   -1.196182    0.414035
C      0.753232    1.364280    0.524079
O      1.888519    1.408197    1.070817
O      0.079205    2.562563    0.292650
H      0.608790   -2.114540    0.203843
H      1.190611   -1.165630    1.618103
H      2.045992   -1.049031    0.032780
H     -0.346776   -0.957615   -1.800650
H      0.931517    0.291521   -1.915493
H     -0.793005    0.782689   -1.736845
H     -1.819745   -1.868923   -0.299521
H     -0.837994    2.582659   -0.136049
