28

C     -2.931803   -0.462863   -0.255883
N     -1.592928    0.172321   -0.143649
C     -1.606582    1.006999    1.083770
C     -1.399415    1.034832   -1.333513
C     -0.567724   -0.924171   -0.049494
C      0.902924   -0.602623   -0.463553
C      1.613729    0.376684    0.490404
C      3.099590    0.388145    0.266844
O      3.587156    1.083180   -0.664286
N      3.960085   -0.414903    1.074818
O      1.620258   -1.813746   -0.478354
H     -3.122709   -1.146313    0.602522
H     -3.018544   -1.057942   -1.193163
H     -3.746158    0.296852   -0.272475
H     -0.688572    1.608533    1.195602
H     -2.449803    1.734033    1.064130
H     -1.723301    0.380812    1.996306
H     -0.486678    1.660080   -1.241735
H     -1.320221    0.421522   -2.258750
H     -2.252315    1.738977   -1.462035
H     -0.558881   -1.359156    0.976052
H     -0.873317   -1.768723   -0.710490
H      0.930772   -0.166862   -1.488395
H      1.257398    1.408830    0.308003
H      1.400166    0.108468    1.547765
H      4.990882   -0.413792    0.908605
H      3.570783   -1.017019    1.833821
H      1.405207   -2.272156   -1.332868
