43

C     -3.504471   -2.111573   -0.975268
C     -4.897094   -1.509223   -0.671847
C     -4.597692   -0.246212    0.075457
N     -5.481703    0.584171    0.530595
O     -6.827430    0.359300    0.354158
C     -3.172177   -0.080350    0.220147
C     -2.537680   -1.140016   -0.375353
C     -1.144442   -1.230196   -0.378895
C     -0.390679   -0.205674    0.231448
C     -1.060567    0.872186    0.857584
C     -2.461666    0.941971    0.848552
C      1.085012   -0.288486    0.249427
C      1.826995   -1.429559    0.482994
N      3.127038   -1.084693    0.529477
N      3.262592    0.214225    0.315244
C      2.029312    0.731867    0.140347
C      1.800032    2.152767   -0.196017
C      2.609803    3.144504    0.376638
C      2.400873    4.484574    0.041623
N      1.428390    4.822406   -0.845852
C      0.640901    3.881820   -1.431116
C      0.816619    2.530484   -1.124439
C      4.250258   -1.998030    0.716682
C      4.802415   -2.453102   -0.635130
O      3.824910   -3.145324   -1.364016
H     -3.391469   -3.108341   -0.497237
H     -3.337334   -2.190401   -2.071022
H     -5.495963   -2.198140   -0.038081
H     -5.441612   -1.279192   -1.612855
H     -7.502680    1.019929    0.717181
H     -0.658773   -2.071388   -0.857904
H     -0.500875    1.648836    1.362796
H     -2.975632    1.767133    1.324386
H      1.446414   -2.431836    0.634964
H      3.387106    2.885572    1.085110
H      3.013839    5.256702    0.487022
H     -0.117813    4.182209   -2.141319
H      0.201967    1.790005   -1.619761
H      3.929479   -2.881767    1.310729
H      5.054122   -1.481708    1.284588
H      5.124878   -1.565517   -1.219969
H      5.695717   -3.098970   -0.477885
H      3.739078   -4.040962   -0.944286
