45

C      3.473720    0.502306    1.740212
C      2.346931    0.076398    0.779116
C      2.781867   -1.010972   -0.265906
C      3.065693   -0.403949   -1.650159
C      1.908396    0.532512   -2.111178
C      0.996106    0.971872   -0.942703
O      1.794370    1.251079    0.195900
O      0.013223   -0.017182   -0.661456
C     -1.047498    0.501801    0.128878
C     -1.501323   -0.603782    1.130215
C     -2.731852   -1.375407    0.621078
C     -3.954664   -0.440158    0.393593
C     -3.554572    0.992908   -0.054946
C     -2.201207    1.006048   -0.793025
O     -2.305801    0.210629   -1.950122
O     -3.492428    1.836689    1.068975
O     -4.804105   -1.000097   -0.576586
O     -3.059309   -2.380414    1.546515
O     -1.790737   -0.044717    2.387665
O      1.156512   -0.044050   -3.154630
O      4.280662    0.304987   -1.614315
O      3.896638   -1.751552    0.165498
O      4.566395    1.040278    1.047952
H      3.820008   -0.369143    2.334030
H      3.079221    1.246809    2.470845
H      1.569978   -0.380699    1.428511
H      1.926265   -1.714795   -0.401953
H      3.167660   -1.252127   -2.369470
H      2.365103    1.460947   -2.525605
H      0.503298    1.918526   -1.266797
H     -0.710570    1.371579    0.746239
H     -0.676185   -1.345732    1.254461
H     -2.444941   -1.849819   -0.346244
H     -4.522731   -0.349027    1.348872
H     -4.339565    1.380598   -0.748260
H     -1.986688    2.060861   -1.093566
H     -1.615728    0.530853   -2.589334
H     -3.544028    2.772212    0.734752
H     -5.218393   -1.805512   -0.176300
H     -3.578059   -3.071685    1.056637
H     -0.919186    0.188888    2.805976
H      0.815751   -0.919496   -2.836939
H      4.595044    0.379278   -2.552763
H      3.570657   -2.363744    0.878710
H      4.306073    1.955998    0.763947
