41

C     -4.461187    1.705513    1.617883
C     -3.069102    1.394181    1.132800
C     -2.778476    0.171957    0.628632
C     -1.399662   -0.125365    0.143493
C     -0.447023    0.788104    0.108293
C      0.818950    0.236553   -0.481397
C      0.409388   -1.239572   -0.853911
N     -0.953067   -1.379241   -0.355726
C     -1.170389   -2.636167    0.344235
C      0.204490   -3.257296    0.485550
C      1.184351   -2.397061   -0.167870
N      1.090951   -2.417589    1.308342
O      0.360845   -1.406126   -2.266174
C      1.646436   -1.468739   -2.856400
C      2.018023    0.358375    0.487149
O      2.518391    1.693490    0.526261
C      3.296871    2.256178   -0.491180
O      3.643659    1.572730   -1.492353
N      3.705357    3.617298   -0.390091
C     -0.712188    2.170830    0.535978
O      0.153527    3.076251    0.408049
C     -2.039850    2.469900    1.096938
O     -2.298817    3.628831    1.519935
O     -3.784486   -0.791924    0.538787
H     -5.119406    1.911401    0.747990
H     -4.875113    0.852078    2.196074
H     -4.465002    2.590187    2.288014
H      1.035211    0.813237   -1.406720
H     -1.823303   -3.296228   -0.263933
H     -1.616277   -2.472417    1.349743
H      0.396446   -4.350467    0.553391
H      2.086021   -2.893821   -0.587414
H      1.864879   -3.023260    1.666437
H      1.955123   -2.529607   -2.963535
H      2.429324   -0.910953   -2.297023
H      1.588803   -1.031422   -3.874020
H      2.840055   -0.324814    0.182670
H      1.704663    0.078909    1.514856
H      3.420510    4.190228    0.434686
H      4.287786    4.053034   -1.139216
H     -3.646715   -1.677198    0.070775
