29

C     -4.052119   -1.079109    0.504280
C     -3.745660   -0.547270   -0.751323
C     -2.737807    0.413715   -0.878609
C     -2.034784    0.856021    0.254768
C     -2.340191    0.307379    1.511796
C     -3.348764   -0.653423    1.634491
C     -0.924334    1.860700    0.115175
C      0.380955    1.156709   -0.135610
C      1.189273    0.767079    0.939847
C      2.382862    0.082974    0.698174
O      3.124087   -0.218500    1.671902
C      2.754024   -0.235944   -0.623512
C      1.914656    0.180072   -1.669913
N      0.759180    0.849142   -1.408953
C      4.002717   -0.970461   -0.940357
O      4.629010   -0.703626   -2.001251
N      4.496667   -2.003101   -0.084176
H     -4.831549   -1.823835    0.600810
H     -4.286867   -0.882184   -1.626762
H     -2.504475    0.811305   -1.858543
H     -1.796687    0.621976    2.394124
H     -3.582734   -1.070539    2.605436
H     -1.142837    2.558567   -0.722344
H     -0.855065    2.485948    1.032538
H      0.897073    1.001625    1.956930
H      2.172240   -0.046069   -2.697903
H      0.151953    1.126762   -2.212868
H      3.921631   -2.379073    0.701333
H      5.407542   -2.466839   -0.297580
