41

C     -0.018438   -3.022338   -1.085241
C      0.382941   -2.594091    0.341431
C      1.897400   -2.729988    0.524816
C      2.492905   -1.392872    0.095608
C      1.359920   -0.406230    0.177310
C      1.509387    0.927308   -0.084576
C      0.337827    1.899154   -0.138500
C     -0.642217    1.769272    1.035971
C     -1.715338    0.666489    0.855732
C     -1.221169   -0.573029    0.077241
C      0.107540   -1.107688    0.649310
C     -3.020828    1.216399    0.283853
C     -3.128665    1.606379   -0.997704
C     -4.237184    1.337105    1.167686
C      2.876666    1.477913   -0.447831
O      3.256015    0.997371   -1.712376
O      4.474588    1.456844   -1.929225
H      0.324355   -4.060312   -1.282505
H     -1.121471   -3.015804   -1.202665
H      0.431752   -2.347807   -1.844878
H     -0.150090   -3.244852    1.069890
H      2.331969   -3.573824   -0.054944
H      2.118022   -2.899998    1.602372
H      2.857406   -1.465164   -0.951380
H      3.327160   -1.111535    0.773209
H     -0.175906    1.784872   -1.110826
H      0.715114    2.943879   -0.128637
H     -0.060986    1.576005    1.965268
H     -1.146939    2.748147    1.195742
H     -1.937716    0.303755    1.884050
H     -2.003620   -1.356071    0.184996
H     -1.108990   -0.364794   -1.007632
H      0.077448   -1.011273    1.758773
H     -2.303482    1.533579   -1.692677
H     -4.067453    1.997542   -1.379127
H     -4.573537    2.395178    1.200471
H     -4.029339    1.011068    2.207680
H     -5.058157    0.707806    0.763348
H      3.615488    1.177087    0.328415
H      2.864753    2.590186   -0.467210
H      4.362869    2.154334   -2.625237
