17

C      1.917418   -0.036622    0.325231
C      0.844210   -0.423058   -0.696494
C     -0.601724   -0.121592   -0.249449
C     -0.856464    1.358545   -0.102123
O     -0.467445    1.986051    0.920144
O     -1.495971    2.047776   -1.128184
C     -0.990999   -0.911454    0.979647
O     -0.783707   -0.452928    2.134930
O     -1.533446   -2.187063    0.848682
H      1.762821   -0.572964    1.284186
H      1.916538    1.057913    0.504927
H      2.916167   -0.318098   -0.069963
H      0.936076   -1.510808   -0.909381
H      1.050290    0.114019   -1.648303
H     -1.262493   -0.469901   -1.073604
H     -1.665392    3.044089   -1.058392
H     -1.685881   -2.603906   -0.061852
