16

C     -0.331118    0.681751   -0.055911
C     -0.304803   -0.672259   -0.002873
N     -1.549345   -1.165451   -0.098739
C     -2.311721   -0.048778   -0.210519
O     -3.565393   -0.080769   -0.324469
N     -1.598892    1.105907   -0.188222
N      0.848887   -1.370336    0.129194
C      2.023339   -0.669295    0.210862
O      3.114114   -1.288048    0.334167
N      2.018692    0.705511    0.159056
C      0.849984    1.404502    0.025581
O      0.850544    2.663522   -0.021401
H     -1.855084   -2.163950   -0.089471
H     -1.951694    2.086515   -0.257297
H      0.839060   -2.414611    0.167326
H      2.923431    1.225789    0.222719
