27

C      4.171425    1.135923    0.176031
C      4.302010   -0.245448    0.035930
C      3.166112   -1.045935   -0.101333
C      1.881930   -0.468862   -0.099713
C      1.750890    0.927921    0.042007
C      2.904390    1.722512    0.179453
C      0.406286    1.544945    0.045063
O      0.290635    2.795326    0.172000
C     -0.804143    0.700343   -0.100322
C     -2.077297    1.292896   -0.096561
C     -3.229132    0.514186   -0.232261
C     -3.120714   -0.875788   -0.374304
C     -1.853934   -1.486904   -0.380329
C     -0.683447   -0.700879   -0.242990
C      0.674336   -1.316234   -0.245254
O      0.808813   -2.564132   -0.371052
O     -1.756683   -2.873310   -0.522515
O     -4.265383   -1.663271   -0.510603
O     -4.485503    1.119157   -0.226403
H      5.053723    1.753886    0.282248
H      5.285523   -0.697456    0.033618
H      3.293635   -2.115809   -0.208628
H      2.827937    2.796983    0.289601
H     -2.181432    2.365445    0.012098
H     -2.569222   -3.469561   -0.623202
H     -5.197867   -1.267693   -0.511909
H     -4.592887    2.121758   -0.125299
