8

C      0.094146    0.321489   -0.380209
O      0.328138    1.120516   -1.325180
N     -1.066668   -0.506739   -0.421160
N      0.990988    0.248312    0.726791
H     -1.724106   -0.454403   -1.230698
H     -1.270781   -1.172759    0.356436
H      1.841085    0.853835    0.758296
H      0.807198   -0.410251    1.515725
