48

C      1.903622   -2.902098   -1.943972
C      0.493501   -2.917017   -1.905903
C     -0.206571   -2.047626   -1.051096
C      0.535417   -1.178893   -0.242712
C      1.909331   -1.169498   -0.283731
C      2.628283   -2.017699   -1.127153
C      2.335341   -0.196389    0.600009
C      1.180666    0.361244    1.135387
N      0.081404   -0.249139    0.629355
C     -1.306858    0.125985    0.925372
C     -1.900928    0.936590   -0.247657
C     -3.325254    1.428288    0.096532
C     -3.984404    0.580355    1.211010
C     -3.471483   -0.888133    1.206509
O     -2.052854   -1.049065    1.208305
C     -4.065202   -1.710202    0.051148
O     -5.458645   -1.790876    0.176257
O     -3.716413    1.146087    2.470564
O     -4.132630    1.396460   -1.053170
O     -1.088033    2.048404   -0.530815
C      3.741213    0.269484    0.847903
C      4.094975    1.472437   -0.042716
C      5.457704    2.010854    0.320634
O      6.486072    1.307395    0.133729
O      5.595144    3.279223    0.878385
N      4.043861    1.100147   -1.459341
H      2.430859   -3.573794   -2.608809
H     -0.053882   -3.600314   -2.542066
H     -1.286255   -2.060384   -1.033815
H      3.709543   -1.999344   -1.158656
H      1.150903    1.186001    1.836391
H     -1.300984    0.765424    1.836919
H     -1.956733    0.274489   -1.143219
H     -3.272785    2.482178    0.461184
H     -5.090370    0.574097    1.061829
H     -3.844250   -1.359261    2.142953
H     -3.798480   -1.256364   -0.927357
H     -3.636948   -2.737241    0.083339
H     -5.774714   -2.322990   -0.599548
H     -4.312843    1.934097    2.568990
H     -3.819450    2.130264   -1.644484
H     -0.371656    1.739042   -1.144894
H      3.831526    0.562128    1.917042
H      4.452659   -0.565844    0.670920
H      3.338448    2.269036    0.134964
H      4.791461    3.870712    1.051799
H      4.249113    1.948509   -2.036179
H      4.787581    0.393246   -1.664640
