33

C      4.823007    2.133111    0.132860
C      5.039287    0.804361   -0.231335
C      3.957523   -0.065669   -0.401794
C      2.632116    0.386509   -0.208259
C      2.436358    1.734725    0.159953
C      3.522953    2.597529    0.328227
C      1.439261   -0.499504   -0.376774
C      1.536352   -1.856817   -0.741837
C      0.373857   -2.616022   -0.878437
O      0.461903   -3.831194   -1.205338
C     -0.874670   -2.018618   -0.650771
C     -0.906033   -0.654275   -0.287490
O      0.231981    0.026868   -0.170220
C     -2.141145   -0.017295   -0.050070
C     -2.203397    1.341479    0.313454
C     -3.437788    1.954301    0.544436
C     -4.620684    1.223873    0.416594
C     -4.577930   -0.125036    0.056765
C     -3.345444   -0.754772   -0.178588
C     -3.300364   -2.108257   -0.539758
C     -2.076356   -2.736350   -0.774200
H      5.663143    2.802876    0.263672
H      6.049445    0.445758   -0.382541
H      4.183016   -1.081314   -0.683522
H      1.440905    2.129214    0.319855
H      3.355324    3.628879    0.610894
H      2.483818   -2.339938   -0.922482
H     -1.302116    1.932559    0.420016
H     -3.477325    2.999349    0.823564
H     -5.573599    1.704491    0.596903
H     -5.506622   -0.675341   -0.037464
H     -4.213996   -2.682140   -0.641076
H     -2.072781   -3.783341   -1.051849
