49

C      1.880992    0.955442    3.073967
C      3.170478    0.144296    2.977658
C      4.180513    0.806407    2.073415
C      4.169903    0.757646    0.728085
C      3.128369    0.061356   -0.110299
C      2.058306    1.020836   -0.538850
C      1.163835    0.675282   -1.465422
C      0.085677    1.598312   -1.855041
C     -0.904046    1.269761   -2.698641
C     -1.163265   -0.057006   -3.379875
C     -2.179517    0.336105   -4.427409
C     -2.581995    1.595048   -4.316022
C     -1.848488    2.228197   -3.247139
O     -1.981150    3.428441   -2.886530
C     -1.799672   -1.100063   -2.432046
C     -0.763172   -1.959534   -1.751214
C     -0.560705   -2.014928   -0.423117
C     -1.337346   -1.194348    0.574699
C     -0.868943   -1.479528    2.008972
C     -1.546972   -0.560591    3.033795
C     -3.014251   -0.839946    3.145965
O     -3.421527   -1.803430    3.849380
O     -3.924608   -0.057123    2.442445
H      1.331981    0.941626    2.112216
H      2.104182    2.007480    3.352430
H      1.228027    0.515033    3.856531
H      3.609521    0.077032    3.996749
H      2.956533   -0.894727    2.652058
H      4.999558    1.335882    2.551865
H      4.962051    1.278622    0.198847
H      2.672560   -0.801122    0.416642
H      3.637047   -0.336780   -1.014815
H      1.996533    1.995666   -0.069825
H      1.253202   -0.287178   -1.946416
H      0.122520    2.612804   -1.473633
H     -0.250699   -0.443686   -3.884303
H     -2.576194   -0.344704   -5.168907
H     -3.321192    2.069271   -4.947919
H     -2.481498   -0.598233   -1.713872
H     -2.434558   -1.796753   -3.021686
H     -0.138139   -2.580939   -2.387027
H      0.218812   -2.680654   -0.060599
H     -1.193279   -0.115228    0.347764
H     -2.416269   -1.446055    0.486477
H     -1.070790   -2.542978    2.268240
H      0.229546   -1.321073    2.071442
H     -1.074735   -0.718350    4.027209
H     -1.388217    0.503379    2.754347
H     -4.918916   -0.238969    2.498234
