49

C     -3.887097   -3.485206   -0.164246
C     -3.136583   -2.337346   -0.832747
C     -2.891778   -1.188422    0.152141
C     -2.136735   -0.037792   -0.517551
N     -1.875563    1.032361    0.478375
C     -2.929546    2.079757    0.473440
C     -2.555645    3.340030   -0.342786
C     -1.575137    3.025697   -1.477024
C     -0.297920    2.332973   -0.963426
C     -0.515001    1.619398    0.395160
C      0.554174    0.593999    0.711654
O      0.269565   -0.384514    1.455828
N      1.906288    0.771823    0.262622
C      2.899001   -0.255908    0.412568
C      4.035778   -0.017936    1.217972
C      5.006130   -1.021464    1.362592
C      4.848954   -2.252826    0.728232
C      3.734418   -2.491210   -0.074640
C      2.763689   -1.494917   -0.260927
C      1.592739   -1.778841   -1.163803
C      4.220291    1.300546    1.919208
H     -4.049866   -4.301071   -0.899647
H     -3.297895   -3.887065    0.687496
H     -4.875396   -3.137038    0.204695
H     -3.734250   -1.970545   -1.695600
H     -2.163884   -2.718380   -1.214051
H     -3.866308   -0.814715    0.535474
H     -2.295376   -1.561350    1.013525
H     -1.191933   -0.442915   -0.939493
H     -2.728981    0.337800   -1.380676
H     -3.120631    2.387154    1.523862
H     -3.897394    1.674869    0.101165
H     -2.089359    4.091138    0.332388
H     -3.476251    3.798889   -0.763773
H     -1.301156    3.969562   -1.996420
H     -2.079686    2.381303   -2.227764
H      0.048158    1.607250   -1.731922
H      0.498246    3.099753   -0.843537
H     -0.422291    2.388862    1.194927
H      2.222137    1.720939   -0.035872
H      5.884099   -0.854858    1.974476
H      5.597636   -3.024301    0.854683
H      3.635839   -3.452471   -0.564095
H      1.290178   -0.864910   -1.716697
H      1.852234   -2.550797   -1.919293
H      0.737307   -2.148957   -0.561701
H      5.058546    1.262375    2.647143
H      3.297330    1.567576    2.476193
H      4.438925    2.091701    1.171870
