48

C     -1.531942   -0.162910    4.518759
O     -0.775076   -0.582186    3.388420
C     -1.185024   -0.412599    2.058384
C     -2.407609    0.199453    1.699951
C     -2.771645    0.350832    0.340329
C     -1.886330   -0.104102   -0.665179
C     -0.694467   -0.721477   -0.283496
C     -0.356605   -0.858141    1.031566
O      0.878836   -1.451228    1.178223
C      1.443366   -1.753964   -0.098919
C      0.401136   -1.248452   -1.150937
C     -0.103016   -2.377375   -2.065095
O      0.951960   -2.901648   -2.825440
C      2.778913   -1.066306   -0.262637
C      2.950664    0.270739    0.136265
C      4.185365    0.923587   -0.050145
C      5.247357    0.224370   -0.652361
C      5.069828   -1.100084   -1.063379
C      3.843922   -1.740605   -0.876716
O      6.486931    0.831152   -0.854242
O      4.388273    2.255577    0.345127
C      3.399830    3.074623    0.961641
C     -4.057543    1.018901    0.022333
C     -4.689192    0.902774   -1.152010
C     -5.993024    1.600565   -1.388366
O     -6.455550    1.312396   -2.677980
H     -0.974751   -0.418371    5.443205
H     -2.511427   -0.685861    4.537548
H     -1.686034    0.936445    4.488389
H     -3.079281    0.557898    2.469049
H     -2.093688    0.033805   -1.716779
H      1.572592   -2.857961   -0.157656
H      0.802945   -0.415086   -1.770217
H     -0.541748   -3.194983   -1.452973
H     -0.902298   -1.996059   -2.740481
H      1.168359   -2.222865   -3.516924
H      2.118289    0.795950    0.584565
H      5.885981   -1.634065   -1.533450
H      3.725958   -2.763294   -1.213052
H      6.671391    1.787782   -0.577162
H      3.076275    2.624202    1.923795
H      2.528596    3.197397    0.284006
H      3.834013    4.074603    1.166100
H     -4.529317    1.603577    0.804726
H     -4.286559    0.284629   -1.943095
H     -5.846119    2.698462   -1.279809
H     -6.737373    1.253280   -0.637225
H     -7.315160    1.798576   -2.776656
