25

C      3.076555    0.280893    0.937179
C      2.475017   -0.214404   -0.381058
C      3.144518    0.477268   -1.566766
O      1.074361    0.060069   -0.417134
C      0.120103   -0.679102    0.293560
O      0.474297   -1.668179    0.991408
C     -1.295494   -0.252843    0.262343
C     -1.574331    1.122950    0.168536
C     -2.890754    1.587465    0.206856
C     -3.946483    0.686323    0.338092
C     -3.689867   -0.683529    0.411628
C     -2.376678   -1.167692    0.353666
O     -2.194579   -2.552422    0.354326
H      2.616746   -0.254115    1.793928
H      4.170778    0.090024    0.956553
H      2.895114    1.370162    1.059796
H      2.647374   -1.309667   -0.477132
H      2.992549    1.576662   -1.511935
H      4.233978    0.259715   -1.576090
H      2.703625    0.104150   -2.515434
H     -0.769739    1.844400    0.092339
H     -3.091485    2.649309    0.145101
H     -4.965795    1.048681    0.373599
H     -4.517874   -1.376662    0.491421
H     -1.311932   -2.999456    0.148407
