44

C      3.811325   -0.328127    2.071224
C      2.916034    0.412246    1.129952
C      1.687213    0.048547    0.776061
C      1.019317   -1.247108    0.938907
C      0.230679   -1.344886   -0.409167
C     -1.268247   -0.846604   -0.382492
C     -2.031732   -1.216899    0.925846
C     -2.280676    0.088241    1.663602
C     -2.467081    1.106555    0.546044
C     -1.379204    0.758585   -0.504563
C     -0.015636    1.520969   -0.207075
C      1.248227    0.675715   -0.482742
N      0.922426   -0.452005   -1.364414
C      2.101868   -1.097432   -1.973485
O      2.373349    1.455779   -0.886947
C      3.355522    1.321211    0.084391
O      4.487429    1.867575    0.017753
C     -1.863842    1.254675   -1.898082
N     -2.426287    2.500362    1.012462
C     -1.989876   -1.587340   -1.547516
H      4.619213    0.343431    2.429227
H      4.263595   -1.197288    1.549430
H      3.231212   -0.686063    2.947857
H      0.426740   -1.237165    1.869256
H      1.771672   -2.063704    0.994491
H      0.271755   -2.407881   -0.744250
H     -3.033053   -1.651520    0.703245
H     -1.533128   -1.978765    1.556166
H     -1.396128    0.338950    2.288728
H     -3.183680    0.025450    2.309127
H     -3.473280    0.915647    0.100304
H      0.026531    1.874107    0.844801
H      0.055385    2.455537   -0.805922
H      2.601690   -0.390114   -2.668147
H      2.835731   -1.437936   -1.211306
H      1.779430   -1.973878   -2.574671
H     -2.862358    0.857116   -2.170324
H     -1.134489    0.974509   -2.687411
H     -1.965223    2.361563   -1.902674
H     -1.822228    2.590406    1.861036
H     -3.388857    2.769528    1.320710
H     -1.496865   -1.385247   -2.522036
H     -1.963958   -2.686665   -1.382663
H     -3.060517   -1.300079   -1.614735
