39

C      3.396546    1.462360   -0.643784
C      2.446354    0.252212   -0.570947
C      3.250180   -0.981649   -0.120939
C      1.219217    0.539749    0.357968
C      0.435164    1.793873   -0.129204
C     -0.999711    1.879997    0.420214
C     -1.706950    0.506910    0.386295
C     -0.954671   -0.454824    1.353840
C      0.311953   -0.726654    0.558100
C     -0.434816   -1.275011   -0.663801
C     -1.437419   -0.186428   -0.929167
C     -1.971981    0.110001   -2.119141
C     -1.230604   -2.427934   -0.032273
C     -1.588989   -1.870858    1.363030
C     -3.209113    0.654967    0.700807
H      2.901861    2.326767   -1.132420
H      4.291763    1.219851   -1.255476
H      3.730091    1.759332    0.373626
H      2.078071    0.053627   -1.601585
H      2.673802   -1.912826   -0.299841
H      3.512019   -0.907272    0.956275
H      4.188193   -1.075742   -0.708860
H      1.616279    0.789398    1.367961
H      0.384719    1.795083   -1.240608
H      0.976959    2.716386    0.172184
H     -1.563653    2.619529   -0.189886
H     -0.973334    2.261137    1.465055
H     -0.779018   -0.046307    2.373345
H      0.916796   -1.513042    1.068541
H      0.203769   -1.559718   -1.526917
H     -1.696415   -0.459209   -3.000779
H     -2.681438    0.924763   -2.217101
H     -2.140672   -2.679608   -0.621241
H     -0.591079   -3.333382    0.059222
H     -1.113473   -2.491313    2.154679
H     -2.681785   -1.863993    1.546221
H     -3.353551    0.882341    1.778344
H     -3.651506    1.482114    0.105963
H     -3.773557   -0.264624    0.442298
