43

C      3.538613    2.242646   -0.694798
C      3.036791    1.056109   -1.461355
O      3.067316    1.086750   -2.720288
C      2.497921   -0.147085   -0.795987
C      2.403088   -0.272261    0.534175
C      1.805909   -1.476073    1.160812
C      0.771932   -1.374233    2.122608
N      0.253919   -2.513119    2.666513
C      0.717578   -3.741709    2.318268
O      0.216911   -4.774063    2.840187
N      1.718747   -3.860412    1.409313
C      2.273339   -2.763310    0.830477
O      3.219448   -2.911009    0.009206
C      0.152400   -0.047513    2.516238
C     -1.167367    0.212298    1.770637
C     -0.964826    0.514732    0.267380
C     -2.319351    0.732600   -0.463506
C     -2.130985    0.951601   -1.993611
C     -3.471267    1.020256   -2.751592
O     -4.301776    2.023511   -2.228576
O     -1.365477    2.100185   -2.263971
O     -3.179318   -0.357544   -0.231983
O     -0.123827    1.630692    0.104776
H      4.374530    1.936834   -0.031480
H      3.908254    3.026653   -1.389428
H      2.716269    2.671703   -0.084908
H      2.135950   -0.948226   -1.430077
H      2.719954    0.534877    1.179675
H     -0.523836   -2.447250    3.362813
H      2.072462   -4.811315    1.154929
H      0.846436    0.805165    2.381470
H     -0.066838   -0.076651    3.605590
H     -1.678084    1.076587    2.248917
H     -1.830241   -0.671030    1.897384
H     -0.466854   -0.361599   -0.199666
H     -2.805539    1.635681   -0.033377
H     -1.573263    0.079642   -2.400328
H     -3.280936    1.190464   -3.836522
H     -3.997633    0.046040   -2.667647
H     -4.070071    2.865153   -2.700896
H     -1.816308    2.873115   -1.834551
H     -2.744219   -1.166697   -0.609447
H     -0.569752    2.407804    0.532962
