26

C     -2.479695    0.025733    0.612797
N     -1.010249    0.155219    0.681848
C     -0.469114    1.018558   -0.378496
C     -0.434181    0.147928   -1.648095
C     -0.333485   -1.283591   -1.115950
C     -0.318316   -1.114568    0.414452
C      1.141409   -0.986214    0.928857
C      1.888846    0.204357    0.267943
C      0.969932    1.437168    0.027840
O      2.982555    0.566683    1.069270
H     -2.823872   -0.363177   -0.368933
H     -2.838684   -0.663450    1.407868
H     -2.957261    1.014891    0.784508
H     -0.779681    0.526228    1.635968
H     -1.091047    1.929768   -0.530574
H      0.419673    0.399286   -2.314770
H     -1.376735    0.276686   -2.223553
H     -1.226037   -1.870149   -1.424887
H      0.573965   -1.800971   -1.497409
H     -0.815191   -1.973246    0.920446
H      1.695569   -1.929844    0.732212
H      1.118925   -0.844367    2.031882
H      2.267723   -0.146130   -0.720332
H      1.411878    2.083281   -0.761640
H      0.915936    2.045862    0.957162
H      3.567135    1.144060    0.511587
