28

C     -1.236242   -0.079524    1.611412
N     -1.452415    0.579808    0.304440
C     -2.731646    0.142341   -0.289201
C     -2.428124   -0.961219   -1.306216
C     -0.914699   -1.081297   -1.338654
C     -0.436496    0.224942   -0.709857
C      1.004048    0.263175   -0.200021
C      1.505514    1.471490    0.316541
N      2.786706    1.557548    0.767335
C      3.630292    0.490852    0.721269
O      4.810931    0.600584    1.147259
C      3.189718   -0.724852    0.196578
C      1.880187   -0.837399   -0.271623
H     -1.168733   -1.184016    1.504128
H     -0.309674    0.294329    2.095444
H     -2.070718    0.159280    2.306621
H     -1.470143    1.617437    0.450101
H     -3.461419   -0.217277    0.471868
H     -3.210493    0.998750   -0.816863
H     -2.892893   -1.923925   -0.999571
H     -2.812827   -0.675672   -2.310073
H     -0.531935   -1.204796   -2.375265
H     -0.625681   -1.957280   -0.719973
H     -0.482149    0.990303   -1.521798
H      0.869983    2.347353    0.362506
H      3.125507    2.467626    1.153795
H      3.857886   -1.575863    0.144642
H      1.575517   -1.782696   -0.694823
