44

C     -4.154855   -0.238894   -0.367477
N     -2.869644   -0.332867   -1.091001
C     -2.185965   -1.621734   -0.804387
C     -1.441851   -1.642033    0.550093
C     -0.560261   -0.390098    0.748800
C     -1.432277    0.869931    0.588913
C     -1.999856    0.861966   -0.865349
C     -0.859697    0.933407   -1.944293
C      0.406363    0.200810   -1.554311
C      0.519380   -0.346012   -0.277954
C      1.732914   -0.595341    0.283863
C      2.908343   -0.560702   -0.466465
C      2.806527   -0.166633   -1.823580
C      1.565420    0.250894   -2.351178
O      4.126137   -0.879319    0.149857
C      5.384908   -0.861405   -0.514347
O      1.621562   -0.740477    1.651622
C      0.279412   -0.465014    2.078754
C      0.218338    0.857396    2.895659
C      0.172088    2.086441    2.005924
C     -0.629001    2.105894    0.929686
O      1.272566    0.936340    3.821800
H     -4.857539   -1.020379   -0.732294
H     -4.031293   -0.383419    0.725024
H     -4.639649    0.745342   -0.547331
H     -3.131068   -0.347693   -2.105903
H     -1.458951   -1.845073   -1.616114
H     -2.915131   -2.462649   -0.824708
H     -0.815420   -2.560133    0.600246
H     -2.181883   -1.707562    1.376556
H     -2.265469    0.834758    1.321650
H     -2.614762    1.782087   -0.996426
H     -0.592619    2.002055   -2.094173
H     -1.215880    0.555432   -2.926065
H      3.683894   -0.110822   -2.453220
H      1.520031    0.659878   -3.352605
H      5.605045    0.161247   -0.887111
H      5.381194   -1.582910   -1.358538
H      6.177734   -1.156873    0.202910
H     -0.062743   -1.299057    2.730440
H     -0.731681    0.844279    3.472899
H      0.797289    2.946508    2.226340
H     -0.643988    2.976678    0.281372
H      2.112339    1.082997    3.312421
