18

C     -1.408430   -0.552740    0.543366
C     -0.833962   -1.361835   -0.618863
N      0.455568   -0.771131   -0.995893
C      0.490408    0.562630   -0.388780
C     -0.345490    0.476122    0.883368
O     -0.932100    1.711664    1.198260
C      1.900491    1.017551   -0.114210
O      2.345162    2.059119   -0.664431
O      2.721013    0.293773    0.743386
H     -1.624104   -1.203664    1.418844
H     -2.350915   -0.054880    0.222782
H     -0.701715   -2.425891   -0.318780
H     -1.537717   -1.333108   -1.481493
H      0.539044   -0.701806   -2.037518
H      1.227812   -1.375091   -0.625499
H      0.005595    1.287105   -1.086406
H      0.259502    0.096864    1.741005
H     -0.210162    2.275318    1.580862
