25

C     -2.743083    1.251079   -0.566845
C     -1.515750    0.665600    0.155011
C     -1.411419   -0.864551   -0.082236
N     -0.145536   -1.388685    0.440515
C      1.084630   -0.679867    0.238569
C      2.312908   -1.332802    0.420344
C      3.511514   -0.649779    0.199588
C      3.490974    0.688066   -0.200616
C      2.272013    1.349807   -0.373545
C      1.060337    0.672249   -0.148192
C     -0.241835    1.361028   -0.283723
O     -0.278838    2.558596   -0.680878
C     -2.565092   -1.598657    0.551632
O     -2.727334   -1.578350    1.761846
H     -2.843140    2.334444   -0.342254
H     -2.649925    1.117437   -1.666143
H     -3.674476    0.754317   -0.222922
H     -1.632210    0.854826    1.245206
H     -1.435662   -1.058911   -1.177701
H     -0.106615   -2.374452    0.788897
H      2.340392   -2.371919    0.723221
H      4.456961   -1.158702    0.336082
H      4.420919    1.214725   -0.372028
H      2.277856    2.390319   -0.673010
H     -3.257590   -2.155818   -0.070818
