26

C     -2.376125   -1.891756    1.137991
N     -1.504163   -0.806883    0.685339
C     -0.101326   -1.024741    0.508743
N      0.397512   -2.183643    0.208688
C      1.727916   -1.919885   -0.201298
O      2.543502   -2.822342   -0.526603
N      2.034772   -0.534885   -0.219435
C      0.852132    0.122162    0.333126
C      0.226611    1.119636   -0.598285
O      0.950601    1.783583   -1.389650
N     -1.195268    1.366331   -0.522759
C     -2.052271    0.416742    0.156145
O     -3.289293    0.644426    0.258500
C     -1.783656    2.488832   -1.260369
O      1.139495    0.731945    1.566606
C      3.362595    0.044220   -0.392612
H     -3.228715   -1.485129    1.721857
H     -2.763512   -2.449733    0.259876
H     -1.817370   -2.590131    1.797167
H     -1.063715    3.331146   -1.336999
H     -2.683904    2.875345   -0.737673
H     -2.066668    2.155545   -2.280703
H      1.571864    0.050279    2.145862
H      4.082891   -0.458420    0.286359
H      3.344790    1.128745   -0.156082
H      3.691302   -0.091388   -1.443791
