24

C      4.499705    0.078644   -0.047780
C      3.353357   -0.909444    0.095488
O      2.112867   -0.217597   -0.002121
C      0.876092   -0.864935    0.092356
O      0.829505   -2.113536    0.271691
C     -0.375041   -0.082423   -0.018150
C     -1.629131   -0.715431    0.070511
C     -2.816921    0.029894   -0.023919
C     -2.744190    1.414048   -0.245100
C     -1.503823    2.048537   -0.333973
C     -0.325103    1.307913   -0.218252
N     -4.091489   -0.630069    0.025388
H      5.468990   -0.457764    0.027890
H      4.443045    0.584749   -1.034769
H      4.445418    0.841832    0.757265
H      3.424997   -1.414399    1.083255
H      3.422621   -1.671753   -0.710665
H     -1.689331   -1.787582    0.212979
H     -3.648993    1.999903   -0.347913
H     -1.455482    3.117489   -0.497265
H      0.623963    1.823945   -0.291657
H     -4.825174    0.018628    0.392422
H     -4.045547   -1.461836    0.657702
H     -4.350335   -0.938813   -0.938989
