32

C      2.808809    3.240756   -0.437552
C      3.113006    2.168330    0.021244
C      3.487076    0.865637    0.585363
C      2.478753   -0.215335    0.201597
O      1.207406    0.111992    0.729104
C      0.287715   -0.944101    0.511036
C     -0.960828   -0.728585    1.407076
C     -2.211206   -1.284749    0.715746
C     -2.416379   -0.534721   -0.611570
C     -1.069243   -0.273310   -1.356158
O     -0.005440   -1.089385   -0.879982
C     -0.686451    1.217887   -1.403999
O      0.492958    1.380024   -2.141818
O     -3.319068   -1.237600   -1.430338
O     -3.341875   -1.104608    1.530080
O     -0.773663   -1.306661    2.676579
H      2.540173    4.181426   -0.841007
H      4.491835    0.586103    0.203667
H      3.541447    0.951652    1.691449
H      2.850821   -1.178244    0.620278
H      2.436672   -0.296662   -0.908157
H      0.737696   -1.911578    0.834040
H     -1.113635    0.362432    1.563428
H     -2.059413   -2.371061    0.505272
H     -2.891217    0.444260   -0.376177
H     -1.220888   -0.559984   -2.420519
H     -0.551113    1.628765   -0.381223
H     -1.508756    1.785788   -1.895797
H      0.642516    2.358473   -2.210654
H     -2.894412   -2.102389   -1.672175
H     -3.349945   -1.851964    2.183511
H     -0.743349   -2.292588    2.560689
