32

H      0.000000    0.000000    0.000000
C      4.960888   -1.123806    1.817600
O      3.925160   -0.748678    0.918030
C      3.550038    0.583277    0.714140
O      4.134257    1.515172    1.332099
C      2.443155    0.908221   -0.253758
C      1.135298    0.223692    0.182709
C     -0.053883    0.656626   -0.686928
C     -1.348779   -0.005897   -0.217651
N     -2.453935    0.427202   -1.067981
C     -3.703725    0.113715   -0.885698
N     -4.676784    0.604666   -1.810191
N     -4.104645   -0.745741    0.197803
N     -5.358548   -0.636871    0.824134
O     -6.043314    0.400470    0.707809
O     -5.752435   -1.602163    1.720387
N      2.812085    0.498327   -1.611091
H      4.705406   -0.798387    2.848281
H      5.071652   -2.227459    1.805988
H      5.921461   -0.662183    1.505083
H      2.279372    2.009781   -0.250046
H      1.252765   -0.881473    0.126323
H      0.921945    0.493678    1.241189
H     -0.170919    1.761422   -0.632698
H      0.133031    0.373172   -1.745799
H     -1.241833   -1.110873   -0.282391
H     -1.553857    0.284980    0.836397
H     -4.396160    1.263231   -2.570685
H     -5.659867    0.255069   -1.793953
H     -3.444935   -1.477598    0.543551
H      3.677388    1.014481   -1.893238
H      3.039718   -0.523151   -1.619414
