27

C      1.714450   -0.676134   -1.888346
C      1.179583   -1.341154   -0.613996
C     -0.287279   -1.039410   -0.429635
C     -1.327570   -1.955423   -0.570318
N     -2.520467   -1.359674   -0.349606
C     -2.248366   -0.073514   -0.073243
C     -3.164947    0.935410    0.219868
C     -2.665086    2.224062    0.477394
C     -1.276227    2.473062    0.435564
C     -0.374344    1.436007    0.136622
C     -0.896826    0.165392   -0.113426
C      1.950710   -1.058687    0.665030
O      1.733516   -1.817623    1.648176
C      2.920208    0.043789    0.859383
O      3.213876    0.840840   -0.069785
O      3.524105    0.201920    2.103539
H      2.797218   -0.891745   -2.010716
H      1.547339    0.420773   -1.877505
H      1.184559   -1.088662   -2.773719
H      1.275083   -2.436414   -0.788619
H     -1.215780   -3.002049   -0.822206
H     -3.461200   -1.811252   -0.389526
H     -4.228164    0.734828    0.248204
H     -3.349526    3.029955    0.708146
H     -0.902525    3.469108    0.634164
H      0.686711    1.629834    0.102472
H      4.190951    0.946761    2.267576
