19

C     -2.822251    0.338155   -0.778046
C     -1.412570   -0.006061   -0.396408
C     -0.553997    0.984091    0.100374
C      0.776342    0.681795    0.439663
C      1.265887   -0.631320    0.225836
C      0.395377   -1.615805   -0.272591
C     -0.928238   -1.305180   -0.586273
N      2.647463   -0.961264    0.446209
O      2.969992   -2.117752    0.788639
O      3.636476   -0.076873    0.081440
N      1.591461    1.700396    1.043076
O      2.360826    1.416134    1.984198
O      1.375796    3.025073    0.739566
H     -3.219700    1.142882   -0.123446
H     -2.844833    0.684599   -1.832324
H     -3.485470   -0.546914   -0.673440
H     -0.932338    1.987791    0.252118
H      0.752619   -2.622317   -0.450658
H     -1.572843   -2.077431   -0.987932
