22

C     -0.529038   -1.071299    0.495232
C      0.878500   -0.820978   -0.079782
C      1.172036    0.693725   -0.053831
O      0.210003    1.415322   -0.810811
C     -1.092126    1.289836   -0.253643
C     -1.554038   -0.184291   -0.235549
O     -2.836452   -0.308710    0.329121
O     -1.147936    1.855073    1.032760
C      2.541513    0.966813   -0.604309
O      2.714007    1.120994   -1.842674
O      3.637632    0.997897    0.248786
O      0.959069   -1.299504   -1.400512
O     -0.889037   -2.420924    0.351920
H     -0.526353   -0.801504    1.578174
H      1.629559   -1.339252    0.563246
H      1.178281    1.047620    1.002763
H     -1.797323    1.845140   -0.912566
H     -1.620916   -0.527650   -1.291798
H     -2.770989   -0.076021    1.291838
H     -0.949869    2.821381    0.922177
H      1.146377   -2.272760   -1.344527
H     -0.352902   -2.930907    1.013988
