26

C      1.936507    1.594726    0.282769
C      1.291454    0.352643    0.350829
N      1.988601   -0.779298    0.034652
C      3.302405   -0.716597   -0.317937
O      3.932897   -1.769816   -0.598681
N      3.937564    0.482451   -0.371349
C      3.280806    1.633496   -0.080079
C     -0.180908    0.286811    0.706598
C     -1.077784    0.290176   -0.557570
C     -2.527954    0.031006   -0.185932
N     -2.833174   -0.747816    0.811259
C     -1.833618   -1.308135    1.667116
O     -2.152967   -2.163397    2.533563
N     -0.476326   -0.878523    1.542273
N     -3.571279    0.552090   -1.009850
N     -0.624021   -0.706607   -1.532297
H      1.409182    2.514169    0.504769
H      1.515624   -1.711177    0.057421
H      3.802357    2.579738   -0.133987
H     -0.441924    1.189539    1.304281
H     -1.002760    1.298127   -1.023680
H      0.238293   -1.242964    2.212780
H     -4.571825    0.350718   -0.788559
H     -3.347879    1.138681   -1.844213
H     -0.802683   -1.667627   -1.158621
H     -1.190586   -0.602417   -2.405557
