28

C     -0.900219   -0.755646    2.080179
C     -1.215687    0.235249    0.932665
C      0.095245    0.864841    0.340257
N     -0.219778    1.671669   -0.846607
C     -1.188857    1.226908   -1.799493
O     -1.307733    1.817689   -2.905198
N     -2.020877    0.109217   -1.489215
C     -1.999064   -0.454073   -0.173782
O     -2.703690   -1.470420    0.073577
C      1.249579   -0.144877    0.043199
C      0.954868   -1.089029   -1.024540
C      1.924172   -0.423806   -1.792056
N      2.308059    0.492389   -0.710264
C      3.407022   -0.402853   -0.375463
O      4.354154   -0.374276    0.453542
N      2.979800   -1.328196   -1.400731
N     -2.052013    1.325018    1.456451
H     -0.420760   -1.679292    1.691763
H     -0.225106   -0.284264    2.826176
H     -1.832711   -1.057857    2.603584
H      0.507087    1.556450    1.109358
H      0.327758    2.541161   -1.037228
H     -2.654783   -0.288499   -2.218311
H      1.550468   -0.645981    1.002096
H      0.268401   -1.911399   -1.178964
H      3.332987   -2.247480   -1.750146
H     -2.950616    0.934561    1.825598
H     -1.567706    1.782796    2.263553
