27

C     -2.816287    0.639478    1.071519
C     -2.016768    0.817468   -0.224919
C     -0.569048    1.178495    0.062985
O     -0.285152    2.405455    0.139662
N      0.485236    0.208169    0.268595
C      0.292468   -1.198228    0.593001
C      1.611211   -1.671217    1.186882
C      2.658085   -0.681550    0.695143
C      1.886482    0.601914    0.384137
C      2.375993    1.236538   -0.887814
O      3.146776    2.230861   -0.840853
O      2.017259    0.703500   -2.120385
N     -2.158515   -0.346496   -1.110811
H     -2.742352    1.556507    1.694477
H     -3.887115    0.468236    0.831273
H     -2.448709   -0.221955    1.662824
H     -2.464650    1.692198   -0.751647
H      0.081725   -1.770253   -0.334997
H     -0.519742   -1.335086    1.333992
H      1.556564   -1.629295    2.297311
H      1.851449   -2.709933    0.871552
H      3.438518   -0.506325    1.467428
H      3.142395   -1.097270   -0.217358
H      1.994388    1.314313    1.232905
H     -3.088835   -0.303076   -1.587282
H     -1.417564   -0.340163   -1.849325
H     -2.123812   -1.242287   -0.575087
