26

C      1.791373   -1.203595    1.949166
C      2.851617   -1.185002    1.027128
N      2.899715    0.253731    1.006087
C      2.116622    0.273263   -0.205459
O      1.814394    1.164716   -1.040140
N      1.974047   -1.173801   -0.157358
C      0.912757   -1.351782    0.813072
C     -0.405295   -0.496416    0.801979
C     -1.163804   -0.560431   -0.564625
C     -1.159558    0.733691   -1.361215
N     -0.979108    1.886102   -0.793190
C     -0.611627    2.016621    0.575566
O     -0.570222    3.156951    1.106755
N     -0.230411    0.863847    1.323074
N     -1.480153    0.694213   -2.752771
N     -2.547976   -0.988244   -0.338133
H      1.695457   -1.275396    3.024866
H      3.385345    0.984680    1.573439
H      0.593524   -2.421392    0.770798
H     -1.052216   -1.008752    1.550441
H     -0.677560   -1.335644   -1.197950
H      0.112573    0.991538    2.302009
H     -1.526986    1.575577   -3.311064
H     -1.659838   -0.215113   -3.233422
H     -3.009635   -1.162744   -1.260643
H     -3.073032   -0.216617    0.135919
