32

C      3.894059    0.297931   -0.309012
C      2.836343   -0.304806    0.589757
C      1.528930    0.088740   -0.085025
N      1.764993    1.391704   -0.713422
C      3.196943    1.446998   -1.034495
C      0.346680    0.133131    0.864585
O      0.518982    0.534175    2.048461
N     -0.985447   -0.194755    0.420525
C     -1.329371   -0.565126   -0.944766
C     -2.835625   -0.812494   -0.939838
C     -3.356881   -0.138050    0.330890
C     -2.157488   -0.065781    1.276428
C     -2.189026   -1.181369    2.283476
O     -2.475415   -0.938985    3.485235
O     -1.936730   -2.490123    1.889335
O     -3.431977   -0.270511   -2.088338
H      4.765843    0.656242    0.280563
H      4.237909   -0.460967   -1.046086
H      2.943161   -1.408980    0.666500
H      2.926507    0.150131    1.600975
H      1.338498   -0.667260   -0.879306
H      1.189157    1.488067   -1.582722
H      1.530504    2.171536   -0.053395
H      3.629316    2.420572   -0.710711
H      3.352919    1.349089   -2.132741
H     -1.062345    0.265995   -1.633290
H     -0.794770   -1.492661   -1.242554
H     -3.024988   -1.910213   -0.883403
H     -3.692767    0.896562    0.095147
H     -4.217177   -0.696330    0.761986
H     -2.147062    0.920189    1.793397
H     -4.363674   -0.612651   -2.108156
