28

C     -1.854414    0.405921    1.867531
C     -3.059171   -0.428741    1.524073
C     -3.262782   -0.876360    0.277748
C     -2.283378   -0.587214   -0.833712
C     -0.888020   -0.313759   -0.313400
C     -0.688868    0.139494    0.945677
N      0.641823    0.443450    1.399336
C      1.775063    0.253181    0.542545
C      3.073433    0.536880    0.988220
C      4.162692    0.345208    0.131839
C      3.957966   -0.128246   -1.168515
C      2.663388   -0.411378   -1.616274
C      1.570017   -0.221001   -0.760057
N      0.233440   -0.500935   -1.195381
C     -2.764381    0.577327   -1.647763
O     -3.036162    0.426459   -2.868045
O     -2.910744    1.830286   -1.063484
H     -1.557574    0.185714    2.914820
H     -2.128621    1.479650    1.800451
H     -3.804287   -0.622537    2.289587
H     -4.169706   -1.429807    0.052525
H     -2.240736   -1.491394   -1.480026
H      0.782384    0.812629    2.366985
H      3.239633    0.904176    1.992987
H      5.165413    0.563874    0.475618
H      4.802540   -0.275294   -1.829212
H      2.512676   -0.776778   -2.624172
H      0.068375   -0.840804   -2.169901
