32

C      1.709905    0.333837   -2.330045
C      3.110158   -0.117678   -1.993774
C      3.419855   -0.753271   -0.852925
C      2.373759   -1.073600    0.189664
C      1.295232    0.031243    0.239918
C      0.761359    0.274950   -1.162239
N     -0.498941    0.516987   -1.376572
C     -1.502404    0.479936   -0.354151
C     -2.845463    0.839876   -0.628061
C     -3.794986    0.741866    0.407326
C     -3.424105    0.293599    1.676946
C     -2.101484   -0.062017    1.936416
C     -1.140144    0.034673    0.924647
N      0.220802   -0.333809    1.173557
C     -3.285076    1.315754   -1.966255
O     -2.460279    1.460484   -2.908132
O     -4.626554    1.613330   -2.194457
C      3.033657   -1.256904    1.529277
O      3.667702   -0.306852    2.063903
O      2.941155   -2.481780    2.182785
H      1.749759    1.376899   -2.709035
H      1.323495   -0.317529   -3.142541
H      3.892416    0.050382   -2.727792
H      4.445965   -1.078790   -0.701329
H      1.886523   -2.030454   -0.102656
H      1.755614    0.981027    0.591840
H     -4.830227    1.010006    0.238185
H     -4.165892    0.220950    2.461906
H     -1.825415   -0.410192    2.923744
H      0.477388   -0.670017    2.129414
H     -4.940848    1.939767   -3.100541
H      3.377072   -2.622674    3.086243
