28

C     -1.778154    2.109754    0.340190
C     -3.120954    1.423781    0.406747
C     -3.260030    0.091405    0.492681
C     -2.066151   -0.834322    0.538483
C     -0.906411   -0.274087   -0.314217
C     -0.630564    1.165134    0.100660
N      0.582132    1.631909    0.179719
C      1.745010    0.822935   -0.012972
C      3.019510    1.400716    0.007735
C      4.153189    0.595924   -0.147595
C      4.013798   -0.786016   -0.315740
C      2.740478   -1.365279   -0.330419
C      1.603824   -0.557741   -0.182404
N      0.288837   -1.122013   -0.186718
C     -2.473195   -2.207477    0.077249
O     -2.900994   -2.388863   -1.094078
O     -2.378543   -3.287019    0.946454
H     -1.614977    2.640171    1.302388
H     -1.799318    2.864267   -0.474299
H     -4.012003    2.044136    0.419377
H     -4.262281   -0.321968    0.573134
H     -1.727855   -0.898562    1.596693
H     -1.209945   -0.259509   -1.384530
H      3.131934    2.468567    0.146556
H      5.139151    1.042131   -0.133252
H      4.892035   -1.407727   -0.432412
H      2.639868   -2.435630   -0.458131
H      0.191610   -2.154617   -0.315747
