30

C     -2.584483    2.550673    0.373205
C     -3.370126    1.470711   -0.029402
C     -2.787456    0.220169   -0.296392
C     -1.387751    0.058868   -0.127996
C     -0.602117    1.163025    0.258489
C     -1.205887    2.401269    0.510117
N      0.817340    1.013763    0.412508
C      1.474354   -0.230826    0.109391
C      2.885874   -0.366820    0.167687
C      3.458335   -1.639111   -0.007918
C      2.658406   -2.749255   -0.277952
C      1.276225   -2.607854   -0.380374
C      0.679229   -1.355515   -0.190298
N     -0.747153   -1.221058   -0.283096
C      3.788276    0.789132    0.362557
O      4.856679    0.651507    1.017576
O      3.500727    2.017927   -0.224993
C     -3.657313   -0.871702   -0.787666
O     -3.285633   -1.592792   -1.750926
O     -4.914072   -1.089653   -0.227531
H     -3.045104    3.510752    0.567496
H     -4.434797    1.621576   -0.159373
H     -0.606816    3.250399    0.814244
H      1.351243    1.805915    0.831516
H      4.532795   -1.770348    0.036894
H      3.113642   -3.720664   -0.422206
H      0.668264   -3.475924   -0.602266
H     -1.316410   -2.087093   -0.404413
H      4.124635    2.807809   -0.111109
H     -5.240905   -0.554881    0.568141
