34

C     -2.763235   -0.780671    1.302719
C     -2.666633   -0.970405   -0.214636
C     -1.226512   -0.811172   -0.656203
O     -0.474765   -1.824423   -0.680782
N     -0.673086    0.486236   -0.956530
C     -1.474019    1.660329   -1.263893
C     -0.501191    2.696959   -1.810559
C      0.891433    2.225025   -1.403799
C      0.755863    0.728418   -1.114361
C      1.518202    0.342852    0.128165
O      1.036004    0.604322    1.264747
N      2.805395   -0.277864    0.017960
C      3.566710   -0.666119    1.203907
C      4.862088   -1.304093    0.813571
O      5.886660   -0.595794    0.629961
O      4.925092   -2.675076    0.599741
N     -3.198738   -2.282372   -0.605527
H     -2.157965   -1.547621    1.832290
H     -2.393151    0.227648    1.587256
H     -3.820578   -0.868903    1.631024
H     -3.294000   -0.190667   -0.696369
H     -2.240600    1.420580   -2.032356
H     -1.962836    2.032032   -0.337580
H     -0.571566    2.726234   -2.920400
H     -0.720388    3.709110   -1.406221
H      1.629416    2.410746   -2.214433
H      1.209288    2.788402   -0.497470
H      1.122424    0.143668   -1.986968
H      3.198693   -0.452705   -0.935314
H      2.972593   -1.386637    1.806058
H      3.768106    0.232072    1.827062
H     -4.214719   -2.336913   -0.362300
H     -2.691078   -3.053703   -0.113166
H     -3.102905   -2.409496   -1.639594
