21

C      1.005079   -1.436420    0.488071
C     -0.107106   -0.665158    0.161829
C     -1.442196   -1.000466    0.099811
C     -2.091917    0.175124   -0.280261
N     -1.201851    1.184209   -0.444220
C      0.002889    0.657288   -0.171466
C      1.235887    1.304772   -0.202475
C      2.386930    0.555790    0.122300
C      2.269810   -0.817393    0.468058
O      3.395271   -1.573804    0.791908
O      3.640892    1.163773    0.103965
C     -3.544471    0.335562   -0.485005
O     -4.001650    1.456990   -0.829321
O     -4.429931   -0.725664   -0.306915
H      0.899745   -2.481821    0.749485
H     -1.875001   -1.970087    0.304714
H     -1.405589    2.169759   -0.724631
H      1.304661    2.351924   -0.468441
H      4.327209   -1.177045    0.792681
H      3.752374    2.141211   -0.138995
H     -4.121038   -1.648546   -0.031093
