15

C      0.084221    0.582398   -0.436007
C     -0.613756   -0.563098    0.300239
C     -1.930007   -0.106270    0.852185
O     -2.005500    0.300755    2.041350
O     -3.065954   -0.086571    0.048269
C      1.399942    0.125291   -0.999038
O      1.451969   -0.295339   -2.185409
C      2.622468    0.116455   -0.183571
O      2.603821    0.502449    1.015038
H      0.248342    1.435886    0.257764
H     -0.563592    0.942458   -1.265673
H      0.029644   -0.926543    1.131557
H     -0.786063   -1.411096   -0.397764
H     -3.028978   -0.389227   -0.917781
H      3.553442   -0.227548   -0.615015
