13

C     -0.680447   -0.332526   -0.932529
C      0.743302    0.118391   -0.778335
N      1.500164   -0.294489    0.197781
O      2.804349    0.141003    0.307513
O      1.018755   -1.179106    1.136278
C     -1.550677    0.312995    0.098180
O     -1.891269    1.519618   -0.029605
O     -1.963218   -0.411692    1.211942
H     -1.045838   -0.045895   -1.941947
H     -0.741724   -1.439097   -0.853152
H      1.142881    0.804417   -1.516035
H      3.207820    0.791027   -0.358293
H     -2.544097    0.015352    1.923535
