15

C     -1.731733   -0.535274   -0.236657
C     -0.578533    0.301155   -0.793912
C      0.414398    0.433552    0.375068
N     -0.158932   -0.330257    1.449300
C     -1.288611   -0.840127    1.146018
C      1.775842   -0.094441    0.027697
O      1.960099   -1.332778   -0.122591
O      2.831843    0.791383   -0.161130
H     -2.678513    0.045665   -0.215419
H     -1.863293   -1.475929   -0.813024
H     -0.944029    1.303725   -1.107093
H     -0.129443   -0.205914   -1.677198
H      0.493201    1.497288    0.690030
H     -1.857153   -1.442379    1.846360
H      3.754856    0.454367   -0.407449
