20

C      2.501672    0.104512   -0.909081
C      1.915700   -0.482818    0.374434
C      0.442964   -0.905773    0.232156
C     -0.539041    0.287199    0.185183
C     -1.990009   -0.190606    0.385709
C     -2.942350    0.964963    0.394800
O     -3.141303    1.613374    1.455678
O     -3.575843    1.354012   -0.778670
O     -0.418430    0.994461   -1.024718
H      3.601652    0.207725   -0.797435
H      2.085137    1.113097   -1.106300
H      2.296669   -0.561206   -1.774235
H      2.029050    0.247013    1.205151
H      2.510058   -1.383835    0.640918
H      0.196961   -1.532668    1.117448
H      0.314175   -1.549853   -0.665379
H     -0.289872    0.979974    1.019260
H     -2.077854   -0.734038    1.351934
H     -2.275179   -0.894775   -0.426036
H     -0.644157    0.369243   -1.762634
