22

C      3.920503    0.273633   -0.672354
O      3.351415    0.155597    0.639124
C      1.976242    0.143667    0.507706
C      1.646018    0.246580   -0.803612
O      2.797264    0.328997   -1.562923
C      0.322261    0.260927   -1.233294
C     -0.697668    0.158769   -0.258176
C     -0.339602    0.058312    1.114739
C      1.011754    0.047389    1.504627
C     -2.152745    0.187548   -0.681025
C     -2.899989   -1.007880   -0.153520
O     -2.818531   -2.111733   -0.756196
O     -3.645364   -0.914991    1.018783
O     -2.768488    1.389422   -0.288005
H      4.516347    1.207250   -0.748784
H      4.546246   -0.614758   -0.899781
H      0.093782    0.348448   -2.287817
H     -1.104457   -0.012816    1.877340
H      1.292748   -0.031476    2.546534
H     -2.212884    0.141954   -1.790576
H     -4.136164   -1.720619    1.387775
H     -2.698689    1.465777    0.699410
