15

C     -1.660426    0.696564   -0.078908
C     -0.737407   -0.217621    0.728754
C      0.377355   -0.620901   -0.253400
N      0.082886    0.081894   -1.472190
C     -0.987158    0.773077   -1.398733
C      1.741220   -0.246061    0.248937
O      2.089017    0.964633    0.306128
O      2.613156   -1.238988    0.684023
H     -1.726474    1.707688    0.376727
H     -2.672251    0.251629   -0.191043
H     -0.344300    0.324068    1.618156
H     -1.291453   -1.117081    1.076341
H      0.336536   -1.715095   -0.448384
H     -1.353811    1.360381   -2.233638
H      3.533111   -1.004186    1.037229
