27

C      2.214321   -2.195790    0.689473
C      3.256868   -1.321252    0.390509
C      2.982665   -0.004776    0.014957
C      1.656247    0.459991   -0.072172
C      0.597305   -0.435114    0.243895
C      0.892841   -1.755806    0.621132
C     -0.821627   -0.014781    0.254760
C     -1.264550    0.770117    1.332554
C     -2.602776    1.149325    1.431894
C     -3.516538    0.743237    0.461741
C     -3.095110   -0.037885   -0.616036
C     -1.747066   -0.424372   -0.744444
C     -1.350499   -1.225707   -1.932504
O     -0.144690   -1.321905   -2.282083
O     -2.319512   -1.862447   -2.699776
C      1.424783    1.861271   -0.511883
O      0.296880    2.232875   -0.933604
O      2.471675    2.779509   -0.486940
H      2.430605   -3.215394    0.981267
H      4.281835   -1.664642    0.446843
H      3.814352    0.646844   -0.222297
H      0.094428   -2.444231    0.871429
H     -0.569716    1.081903    2.103296
H     -2.933152    1.754086    2.266538
H     -4.555235    1.036859    0.542636
H     -3.827351   -0.327512   -1.359350
H      2.333017    3.735595   -0.791837
