49

C      0.815448    0.192666   -3.007294
C      1.546032    1.127747   -3.744707
C      1.321892    2.496928   -3.570561
C      0.349882    2.933247   -2.654646
C     -0.383645    1.993117   -1.916648
C     -0.141847    0.616728   -2.073290
C     -0.908812   -0.389355   -1.305988
C     -1.191004   -0.240518    0.066163
C     -1.994972   -1.193750    0.701132
O     -2.319768   -0.995901    1.900828
C     -2.432809   -2.336684   -0.009836
C     -3.203036   -3.398774    0.553776
C     -3.661811   -4.432324   -0.272352
C     -3.325946   -4.474927   -1.627619
C     -2.531208   -3.471214   -2.175037
C     -2.089845   -2.406642   -1.385693
O     -1.357833   -1.456714   -1.955396
O     -3.772487   -5.516564   -2.437957
O     -3.521435   -3.500557    1.911451
O     -0.686559    0.831384    0.814144
C      0.704569    0.984978    1.097025
C      1.169385   -0.059249    2.099301
C      2.261436    0.670880    2.831393
C      1.788046    2.121538    2.752252
O      0.929782    2.266107    1.640004
C      2.955081    3.111089    2.633135
O      3.808738    3.011187    3.741269
O      2.354667    0.247790    4.166562
O      1.659102   -1.198530    1.442159
O      0.114002    4.296392   -2.483033
O      2.069911    3.406806   -4.316934
H      1.008415   -0.863085   -3.154338
H      2.290172    0.787339   -4.453604
H     -1.147839    2.338250   -1.231742
H     -4.261649   -5.227242    0.153710
H     -2.267101   -3.509629   -3.224914
H     -4.350455   -6.263548   -2.070687
H     -3.053836   -3.004211    2.654162
H      1.301949    0.903719    0.162794
H      0.334584   -0.321843    2.792606
H      3.237215    0.541745    2.303300
H      1.201494    2.373301    3.664756
H      2.560705    4.149123    2.546290
H      3.536636    2.897053    1.710813
H      3.339347    3.444818    4.501084
H      2.829693   -0.623635    4.152985
H      1.751429   -1.903705    2.134401
H     -0.580425    4.636704   -1.828179
H      1.944709    4.407966   -4.227039
