14

C     -1.513707    0.253479    0.166938
C     -0.490915   -0.734530   -0.396770
C      0.832588   -0.375227    0.302721
N      0.529324    0.760635    1.129736
C     -0.699694    1.099122    1.074320
C      1.918863   -0.033738   -0.675316
O      1.865876    1.033473   -1.342971
O      2.972998   -0.915896   -0.875183
H     -1.960556    0.875142   -0.638173
H     -2.306963   -0.270511    0.741842
H     -0.428075   -0.630998   -1.503262
H     -0.786777   -1.778592   -0.153422
H      1.161966   -1.216605    0.951220
H     -1.094930    1.934246    1.642462
