19

C     -2.147461    0.703344   -0.910672
C     -2.465794   -0.636766   -0.682811
C     -1.587866   -1.451997    0.035433
C     -0.385340   -0.929650    0.534684
C     -0.067047    0.427205    0.319287
C     -0.952467    1.233411   -0.417078
C      1.230775    1.007465    0.817628
C      2.317846    0.770471   -0.180989
O      2.508264    1.595122   -1.114623
O      3.091034   -0.383585   -0.103526
O      0.491708   -1.753454    1.240129
H     -2.825975    1.331708   -1.473082
H     -3.391521   -1.045403   -1.066953
H     -1.840814   -2.491525    0.200944
H     -0.716451    2.272779   -0.609700
H      1.512875    0.549759    1.789971
H      1.123242    2.099478    0.998380
H      3.820185   -0.566814   -0.782399
H      0.284808   -2.731547    1.405378
