44

C      2.714001    0.564822    2.711458
C      2.571507    0.692728    1.192879
C      3.589459   -0.179219    0.507542
O      3.413631   -1.428056    0.465404
N      4.769063    0.400962   -0.064740
C      5.771896   -0.422734   -0.737546
C      6.888025    0.425732   -1.258590
O      7.880719    0.682426   -0.526241
O      6.806124    0.969927   -2.536423
N      1.219301    0.317639    0.768183
C      0.725974    0.617357   -0.547562
O      1.455693    1.236627   -1.369282
C     -0.661877    0.205396   -0.961990
C     -1.720359    0.927649   -0.101626
C     -3.109175    0.693316   -0.622126
C     -3.705697    1.340397   -1.700366
N     -4.939330    0.836094   -1.930215
C     -5.122903   -0.129809   -1.013248
C     -6.241697   -0.947737   -0.861334
C     -6.216745   -1.912745    0.162080
C     -5.086185   -2.038908    0.999452
C     -3.970516   -1.200588    0.822483
C     -4.025704   -0.250403   -0.198438
N     -0.785232   -1.253046   -0.880845
H      1.971514    1.219159    3.216025
H      2.544337   -0.484801    3.035336
H      3.731474    0.880223    3.027993
H      2.746517    1.758815    0.927978
H      4.906211    1.435489    0.005394
H      6.177058   -1.172449   -0.023799
H      5.299090   -0.963340   -1.585575
H      7.545341    1.560914   -2.897853
H      0.595228   -0.188516    1.436848
H     -0.807492    0.510740   -2.023890
H     -1.523401    2.021995   -0.120199
H     -1.655402    0.601576    0.958065
H     -3.256116    2.128979   -2.289775
H     -5.605658    1.131346   -2.678009
H     -7.101673   -0.846446   -1.510642
H     -7.068812   -2.563925    0.307237
H     -5.077778   -2.785916    1.782313
H     -3.102085   -1.295276    1.460646
H     -0.883056   -1.548300    0.117728
H     -1.655269   -1.548094   -1.380358
