48

C      5.099279   -1.224523    0.490393
N      3.642202   -1.010691    0.438973
C      3.209105   -0.435625   -0.838988
C      3.495308    1.075433   -0.755482
C      3.486917    1.371874    0.746137
C      3.192822    0.007002    1.395410
C      1.671620   -0.202245    1.583086
C      0.901566   -0.092550    0.237032
C      1.691312   -0.710183   -0.949592
O     -0.346261   -0.761317    0.355362
C     -1.426390    0.153297    0.470298
C     -2.632620   -0.538816    1.067085
C     -3.564435    0.209058    1.808576
C     -4.709735   -0.401784    2.328666
C     -4.944509   -1.760815    2.101452
C     -4.033491   -2.510368    1.357084
C     -2.885361   -1.905822    0.835626
C     -1.794520    0.710228   -0.890494
C     -2.038614    2.085622   -1.051722
C     -2.390921    2.597308   -2.305687
C     -2.510094    1.741512   -3.405304
C     -2.277866    0.371945   -3.252970
C     -1.923629   -0.143949   -2.002384
H      5.385252   -2.019776   -0.229019
H      5.393129   -1.570267    1.504054
H      5.669785   -0.302672    0.248236
H      3.733558   -0.899207   -1.706571
H      4.497578    1.295674   -1.185803
H      2.741054    1.683991   -1.302015
H      4.486124    1.737257    1.069910
H      2.726428    2.143704    1.010952
H      3.701195   -0.091928    2.380344
H      1.273253    0.544162    2.303291
H      1.505891   -1.211143    2.021125
H      0.789325    0.993927    0.000845
H      1.302489   -0.304823   -1.908237
H      1.533170   -1.811558   -0.964761
H     -1.150322    0.982293    1.168444
H     -3.404801    1.267456    1.982525
H     -5.414880    0.179062    2.909464
H     -5.830530   -2.231858    2.507384
H     -4.214426   -3.563846    1.188077
H     -2.197738   -2.505041    0.252101
H     -1.954810    2.761992   -0.208864
H     -2.574462    3.657564   -2.425133
H     -2.785134    2.139082   -4.374254
H     -2.374019   -0.291566   -4.104122
H     -1.748793   -1.207071   -1.900530
