26

C     -4.293634   -0.154377    0.579112
C     -3.918743    1.191946    0.661533
C     -2.568186    1.551911    0.594104
C     -1.590687    0.562280    0.443562
C     -1.968168   -0.793846    0.360888
C     -3.320026   -1.148249    0.429037
N     -1.009390   -1.745456    0.217848
C      0.307506   -1.413517    0.150216
C      1.275729   -2.410012    0.012194
C      2.625887   -2.064820   -0.051759
C      3.016836   -0.724808    0.022443
C      2.060171    0.298635    0.164566
C      0.691819   -0.053831    0.225515
N     -0.274955    0.894040    0.375774
C      2.500490    1.716165    0.226436
O      1.758006    2.627860   -0.227642
N      3.763188    2.072295    0.794877
H     -5.339641   -0.427362    0.631935
H     -4.675791    1.956674    0.777763
H     -2.285451    2.595353    0.658408
H     -3.617393   -2.187717    0.366648
H      0.984551   -3.451544   -0.046505
H      3.374100   -2.838705   -0.165553
H      4.070551   -0.491277   -0.057263
H      4.354292    1.370834    1.292563
H      4.078939    3.067526    0.783281
