45

C     -1.558866    0.009107   -1.639246
C     -0.985485   -1.254794   -0.968803
C     -2.087902   -2.179084   -0.396291
C     -2.723234   -1.738762    0.938872
C     -3.558681   -0.489188    0.824530
C     -3.191877    0.677584    1.517062
C     -3.967587    1.835583    1.408765
C     -5.123281    1.837384    0.616495
C     -5.500735    0.674626   -0.062333
C     -4.727090   -0.484904    0.043933
O     -5.902605    2.986020    0.499498
N      0.010721   -0.931992    0.071896
C      1.307058   -0.541923   -0.499954
C      2.355545   -0.397139    0.619493
C      3.693248    0.056441    0.068189
C      4.447176   -0.775855   -0.780916
C      5.674039   -0.341601   -1.291595
C      6.163086    0.926734   -0.966517
C      5.417760    1.763973   -0.126805
C      4.190360    1.333350    0.385756
O      7.387232    1.345474   -1.482880
O      2.498410   -1.588658    1.354522
H     -2.431988   -0.248258   -2.275528
H     -0.792314    0.470603   -2.295803
H     -1.867878    0.766492   -0.892832
H     -0.500876   -1.848714   -1.777562
H     -2.880173   -2.339694   -1.159160
H     -1.627612   -3.176568   -0.222152
H     -1.935766   -1.625366    1.714546
H     -3.384274   -2.558677    1.294499
H     -2.301822    0.695070    2.133422
H     -3.669830    2.730175    1.940661
H     -6.395694    0.669074   -0.671439
H     -5.038285   -1.378250   -0.482737
H     -5.656218    3.844017    0.979092
H     -0.341629   -0.140551    0.660179
H      1.213369    0.430598   -1.032401
H      1.651570   -1.309954   -1.227261
H      1.976460    0.373833    1.326060
H      4.087266   -1.759205   -1.053846
H      6.244695   -0.991415   -1.942909
H      5.787666    2.748911    0.128276
H      3.629090    1.998697    1.029947
H      7.768537    2.259040   -1.266314
H      2.648411   -2.332235    0.714729
