17

C      1.517412    0.425583    0.044110
C      0.598712   -0.675803   -0.511379
C     -0.798594   -0.735516    0.163529
C     -1.642711    0.485321   -0.117537
N     -1.995078    0.766940   -1.319100
O     -0.690821   -0.977498    1.545699
O      1.245567   -1.912064   -0.349916
O      0.975588    1.694065   -0.199857
H      2.505398    0.351396   -0.463514
H      1.686586    0.281326    1.133808
H      0.463219   -0.478253   -1.601413
H     -1.342795   -1.600594   -0.274445
H     -1.975315    1.118345    0.700974
H     -2.579240    1.592780   -1.513999
H     -0.402363   -0.136693    1.987018
H      0.824032   -2.545428   -0.988231
H      1.610403    2.346094    0.196007
