43

C     -3.169141   -2.487898    1.438661
C     -2.067667   -2.114142    0.438520
C     -1.845428   -0.588331    0.307555
C     -2.665695    0.126499   -0.790391
C     -2.514177    1.664531   -0.672624
C     -1.208225    2.195454   -1.238052
C     -0.015177    1.895997   -0.663374
C      0.214409    0.920947    0.473564
C     -0.327110   -0.464027    0.064513
O      0.220958   -1.546851    0.791518
C     -0.726101   -2.541776    0.922637
O     -0.457737   -3.685113    1.377197
C      1.723697    0.944060    0.625761
C      2.308733    1.759564   -0.245462
C      1.305147    2.365225   -1.084063
O      1.554272    3.185599   -2.006289
C      2.465776    0.345900    1.791580
O      3.751341   -0.135545    1.399178
C      3.946346   -1.254147    0.580898
O      2.965306   -1.919603    0.153423
C      5.307148   -1.654589    0.216114
O      6.292991   -0.993110    0.637577
O      5.512681   -2.765223   -0.596781
C     -1.274241    3.109230   -2.437346
O     -4.023483   -0.225536   -0.695640
H     -3.225692   -3.592407    1.541583
H     -2.965866   -2.047735    2.438787
H     -4.155486   -2.130601    1.080757
H     -2.266666   -2.576039   -0.553362
H     -2.088063   -0.126226    1.293235
H     -2.311060   -0.198630   -1.793264
H     -3.371957    2.132701   -1.201388
H     -2.609181    1.986447    0.387474
H     -0.252577    1.296296    1.410168
H     -0.099341   -0.652510   -1.011544
H      3.366186    1.990809   -0.271182
H      2.610144    1.141061    2.552364
H      1.884352   -0.466275    2.273233
H      6.448630   -3.052675   -0.856877
H     -0.681562    2.679505   -3.272209
H     -0.879754    4.112475   -2.171590
H     -2.312697    3.242563   -2.804614
H     -4.364033    0.124125    0.169756
