49

C     -2.666477   -0.664428   -1.310517
C     -3.933112   -0.941739   -1.851608
C     -5.053843   -0.656360   -1.077141
C     -4.947535   -0.123094    0.181600
C     -3.700869    0.163096    0.745131
C     -2.541476   -0.102137   -0.010240
O     -1.299428    0.194120    0.575494
C     -0.036499    0.228000   -0.093202
C      0.072490    1.517379   -0.950000
C      1.528544    2.046117   -1.014114
C      2.552970    0.891891   -0.911969
C      2.246405   -0.027436    0.315503
O      0.976036    0.238126    0.893963
C      3.308220    0.138018    1.414379
O      4.603529   -0.232122    0.942207
C      5.007941   -1.558975    0.758025
O      4.257055   -2.515865    1.092262
C      6.367199   -1.840387    0.207696
C      7.377864   -1.817488    1.311040
O      7.734006   -2.893532    1.859569
O      7.900288   -0.610635    1.767052
O      2.524338    0.117638   -2.084665
O      1.735534    2.949614    0.043341
O     -0.448544    1.316762   -2.240452
C     -6.241249    0.028502    0.663716
C     -7.071256   -0.433969   -0.357884
N     -6.338934   -0.849569   -1.414492
C     -6.670747    0.562144    1.975829
O     -5.813091    0.937261    2.816565
O     -8.019664    0.662042    2.311263
H     -1.799491   -0.903715   -1.906465
H     -4.032853   -1.369549   -2.840939
H     -3.612122    0.584400    1.736261
H      0.066017   -0.688433   -0.718929
H     -0.550511    2.306409   -0.472658
H      1.672789    2.585969   -1.980059
H      3.570688    1.339319   -0.814663
H      2.274076   -1.095227   -0.001187
H      3.338170    1.200118    1.738849
H      3.040950   -0.475384    2.302865
H      6.375542   -2.831124   -0.296841
H      6.625924   -1.070834   -0.550174
H      7.616083    0.271080    1.357162
H      2.965640    0.651329   -2.796437
H      2.547097    3.476279   -0.180389
H      0.105987    0.627588   -2.688978
H     -8.151643   -0.469528   -0.337981
H     -6.703439   -1.242185   -2.310911
H     -8.758599    0.380513    1.680638
