44

C      2.757002    2.055797   -0.124949
C      2.874896    0.547716    0.131417
C      2.980592    0.283393    1.647489
C      1.736519   -0.229618   -0.597943
C      1.999757   -1.731261   -0.694159
C      0.624942   -2.350278   -0.822161
C     -0.311603   -1.472584    0.042048
C      0.315530   -0.075647    0.011575
C     -0.663215    0.716738   -0.900433
C     -1.669252    1.593822   -0.089918
C     -2.479998    0.690285    0.878650
C     -2.811060   -0.695686    0.276889
C     -1.679372   -1.235818   -0.652334
O     -1.408660   -0.244440   -1.615272
O     -2.121248   -2.417108   -1.276391
C     -2.637403    2.318526   -1.051534
O     -0.976112    2.554052    0.672235
C     -0.401754   -2.072232    1.466134
H      1.832791    2.459921    0.336112
H      2.736225    2.264543   -1.215762
H      3.630776    2.587152    0.309266
H      3.836490    0.220696   -0.324223
H      2.168882    0.786541    2.211795
H      3.943815    0.688673    2.024470
H      2.962563   -0.797272    1.885307
H      1.725565    0.125096   -1.653975
H      2.493371   -2.134071    0.212535
H      2.632528   -1.977295   -1.575264
H      0.335200   -2.315789   -1.896765
H      0.632813   -3.416320   -0.504142
H      0.354797    0.369974    1.024623
H     -0.117170    1.367790   -1.617507
H     -3.423008    1.192203    1.188335
H     -1.902510    0.551943    1.814891
H     -3.041360   -1.420494    1.086236
H     -3.738733   -0.590822   -0.327239
H     -2.820063   -2.160959   -1.933659
H     -3.304896    3.000275   -0.482202
H     -3.268880    1.593144   -1.607353
H     -2.071262    2.926765   -1.789055
H     -0.477788    3.139070    0.043206
H      0.614498   -2.267094    1.870099
H     -0.906168   -1.396130    2.180815
H     -0.958035   -3.033198    1.438114
