44

C      5.923967    1.479488    0.596569
C      4.530365    1.703045    1.181204
C      3.418858    1.644172    0.123030
C      3.162358    0.216086   -0.386687
C      2.066950    0.156940   -1.467265
C      0.663498    0.602883   -1.007085
C      0.101873   -0.160141    0.205930
C     -0.085498   -1.661717   -0.072550
C     -0.776416   -2.388138    1.089900
C     -2.207463   -1.970125    1.252138
O     -2.635659   -1.640140    2.390102
O     -3.063578   -2.001397    0.145958
C     -4.436032   -1.607989    0.183290
C     -4.619421   -0.104723   -0.114495
C     -4.179796    0.777335    1.059333
C     -3.899408    0.304884   -1.406682
H      6.115216    2.194990   -0.230301
H      6.685581    1.643492    1.387572
H      6.036974    0.441280    0.220875
H      4.511283    2.709437    1.649750
H      4.337938    0.958119    1.981640
H      3.673060    2.311902   -0.728213
H      2.492990    2.034779    0.595467
H      2.907358   -0.453996    0.459605
H      4.093196   -0.180906   -0.842924
H      2.011491   -0.879357   -1.860678
H      2.373552    0.797340   -2.321891
H      0.676627    1.689004   -0.774026
H     -0.038365    0.479516   -1.861252
H      0.750967   -0.011820    1.094985
H     -0.881795    0.289712    0.449135
H     -0.669250   -1.808250   -1.008005
H      0.910073   -2.132650   -0.217253
H     -0.211917   -2.208917    2.031858
H     -0.757849   -3.480482    0.889495
H     -4.974682   -2.184895   -0.600340
H     -4.901091   -1.881645    1.156982
H     -5.707628    0.071323   -0.265814
H     -4.453719    1.834985    0.861205
H     -4.691350    0.459520    1.992518
H     -3.083294    0.724931    1.210591
H     -4.108764    1.370619   -1.639020
H     -4.259986   -0.311944   -2.257455
H     -2.801213    0.173450   -1.308621
