43

C     -3.112494   -0.179989   -0.388140
C     -4.265397   -0.391330    0.610145
C     -5.000726   -1.658419    0.292086
O     -6.018344   -1.623574   -0.450252
N     -4.528463   -2.911044    0.787966
C     -2.264918    1.097609   -0.146681
C     -3.128030    2.325147   -0.052376
O     -3.487059    2.772260    1.070846
O     -3.573083    2.943908   -1.216617
N     -1.396727    0.996324    1.045979
C     -0.120441    0.315429    0.772007
C      0.957537    1.344816    0.391076
C      2.246127    0.680847   -0.170218
C      2.949964   -0.278952    0.836772
C      4.217936   -0.978109    0.275245
C      3.907346   -1.872474   -0.939105
O      4.992187   -2.718113   -1.213347
O      5.192471   -0.024584   -0.066155
O      3.258124    0.377663    2.042058
O      3.142816    1.680749   -0.584762
O      1.247347    2.147169    1.507823
H     -2.447714   -1.070109   -0.369927
H     -3.543437   -0.120515   -1.412619
H     -4.978638    0.459230    0.558567
H     -3.885289   -0.455226    1.649904
H     -3.672923   -2.958850    1.384907
H     -5.032242   -3.794961    0.553337
H     -1.632105    1.241720   -1.051744
H     -4.169729    3.761414   -1.174985
H     -1.890544    0.498657    1.820723
H     -0.228364   -0.446993   -0.031153
H      0.203236   -0.221620    1.690769
H      0.535238    1.984451   -0.419195
H      1.940623    0.078385   -1.056559
H      2.236336   -1.092105    1.087075
H      4.606466   -1.635069    1.090272
H      3.023954   -2.508761   -0.717778
H      3.666525   -1.254405   -1.834032
H      5.642009   -2.188514   -1.744836
H      6.076385   -0.470283    0.009016
H      3.889861    1.113851    1.833276
H      2.795769    2.046156   -1.440508
H      1.648411    2.988213    1.165065
