38

C      2.277465    0.028813   -0.855534
C      0.991367   -0.217362   -0.057079
C     -0.204701   -0.449514   -0.997287
N     -1.430302   -0.815230   -0.270043
C     -2.005001    0.320346    0.465149
C     -3.435803   -0.001090    0.910052
C     -4.389504   -0.135231   -0.288132
C     -5.804473   -0.571843    0.129974
N     -6.512070    0.464213    0.882145
C      3.472303    0.260324    0.081442
C      4.759861    0.632328   -0.687632
C      5.846910    1.024446    0.276501
O      6.269963    2.210534    0.292944
O      6.389969    0.098015    1.163989
N      5.237482   -0.463600   -1.535994
H      2.139246    0.919851   -1.506810
H      2.476139   -0.855127   -1.499070
H      0.793684    0.666115    0.586552
H      1.129315   -1.108332    0.593944
H      0.040844   -1.281668   -1.692124
H     -0.380684    0.452492   -1.624554
H     -1.217729   -1.588365    0.403803
H     -2.022343    1.236231   -0.167217
H     -1.397584    0.533536    1.372076
H     -3.434596   -0.941856    1.503138
H     -3.782614    0.822664    1.569429
H     -4.440900    0.828545   -0.840286
H     -3.991388   -0.902010   -0.987603
H     -6.389321   -0.802204   -0.786325
H     -5.754791   -1.503970    0.734269
H     -6.434320    1.376290    0.376190
H     -6.068266    0.572496    1.821964
H      3.642257   -0.652065    0.694419
H      3.222180    1.093272    0.776033
H      4.541391    1.512316   -1.335273
H      6.072689   -0.863230    1.187574
H      4.631107   -0.526875   -2.385337
H      5.162217   -1.373254   -1.024928
