21

C      2.294537    0.294393   -0.739267
C      1.146083   -0.077668    0.212835
C     -0.234775    0.010914   -0.493489
C     -1.402240   -0.330218    0.462130
C     -2.722998   -0.154430   -0.241236
O     -3.248504   -1.121119   -0.854757
O     -3.349296    1.088407   -0.264625
O     -1.274734   -1.647498    0.935227
O     -0.269236   -0.812120   -1.635705
O      1.179753    0.743403    1.354905
O      3.517292    0.205777   -0.061528
H      2.150044    1.331431   -1.118006
H      2.304517   -0.403648   -1.605972
H      1.309546   -1.126264    0.545203
H     -0.374529    1.060933   -0.835248
H     -1.372438    0.375466    1.324400
H     -2.938588    1.891624    0.196142
H     -1.871341   -1.727985    1.725113
H     -0.089112   -1.743510   -1.343116
H      1.030477    1.678861    1.056320
H      4.215543    0.463252   -0.718168
