45

C     -7.207443   -2.041921   -1.084367
C     -6.822711   -0.724302   -0.417560
C     -5.596039   -0.901114    0.488809
C     -5.269985    0.364135    1.303362
C     -4.816737    1.563464    0.452037
C     -3.591533    1.263424   -0.365017
C     -2.398234    1.076972    0.204538
C     -1.206841    0.787380   -0.609745
C     -0.015258    0.596998   -0.039758
C      1.176961    0.305732   -0.853938
C      2.371105    0.119174   -0.282826
C      3.574580   -0.204265   -1.083399
C      4.823958   -0.022099   -0.589321
C      5.225800    0.666739    0.649647
O      4.451413    1.300539    1.414594
C      6.714200    0.626794    0.842935
N      7.196017   -0.070236   -0.344218
C      6.099752   -0.452449   -1.162229
O      6.248914   -1.133509   -2.209976
C      7.088747   -0.143586    2.110861
O      8.481744   -0.168363    2.253889
O      3.365691   -0.719720   -2.367334
H     -6.365909   -2.421222   -1.702547
H     -8.087840   -1.882690   -1.742075
H     -7.470842   -2.800992   -0.317249
H     -7.685527   -0.359512    0.181093
H     -6.603341    0.018078   -1.213722
H     -4.716181   -1.201761   -0.120303
H     -5.797091   -1.724610    1.208762
H     -4.471152    0.117172    2.035882
H     -6.165061    0.660908    1.892215
H     -5.639529    1.879453   -0.222547
H     -4.604470    2.424593    1.122328
H     -3.691538    1.220079   -1.443536
H     -2.303482    1.139197    1.283004
H     -1.304228    0.727244   -1.688504
H      0.080864    0.656429    1.039186
H      1.075833    0.253235   -1.932147
H      2.441214    0.166315    0.795287
H      7.125403    1.659168    0.870269
H      8.198554   -0.269155   -0.559425
H      6.697599   -1.184923    2.050368
H      6.635668    0.359607    2.994530
H      8.664037   -0.681998    3.083278
H      4.092921   -0.844403   -3.056090
