48

C     -4.111652    1.856464   -1.311750
C     -3.960726    0.468752   -0.685733
C     -3.271817    0.496919    0.701440
C     -4.080130    1.331651    1.709932
C     -3.070272   -0.932269    1.273556
C     -2.157482   -1.854144    0.430216
C     -1.958453   -3.202726    1.131120
C     -0.823724   -1.217567    0.154053
O     -0.055349   -0.918380    1.109848
O     -0.459071   -0.945894   -1.172675
C      0.759127   -0.301448   -1.565062
C      0.796725    1.105138   -0.995288
O     -0.224318    1.837452   -1.095840
C      2.007017    1.666224   -0.370200
C      3.096761    0.924611   -0.144442
C      4.288873    1.525222    0.486985
C      5.363730    0.759916    0.731633
O      5.341330   -0.600979    0.385155
C      4.233849   -1.215881   -0.217276
C      3.126245   -0.511673   -0.494628
C      1.943701   -1.139213   -1.125415
O      1.922939   -2.384399   -1.331413
C      6.579408    1.317266    1.362144
O      6.634170    2.533910    1.686051
O      7.684464    0.506036    1.608405
C      0.774833   -0.204433   -3.095531
H     -4.441595    1.751680   -2.366947
H     -4.879150    2.450349   -0.773640
H     -3.142001    2.397962   -1.297845
H     -4.961716   -0.008767   -0.606749
H     -3.351039   -0.130952   -1.391898
H     -2.277102    0.981724    0.596664
H     -3.614109    1.281633    2.717206
H     -4.094729    2.400951    1.414214
H     -5.124018    0.957570    1.781143
H     -2.631840   -0.848124    2.293365
H     -4.064633   -1.419262    1.385369
H     -2.656575   -2.072784   -0.537433
H     -1.470479   -3.067411    2.120515
H     -1.323723   -3.867999    0.506866
H     -2.939039   -3.702461    1.282761
H      1.995714    2.710776   -0.080079
H      4.285844    2.577313    0.748808
H      4.295694   -2.270340   -0.453911
H      7.689395   -0.477368    1.366523
H     -0.099406    0.379533   -3.456405
H      0.719186   -1.217403   -3.549570
H      1.705144    0.292827   -3.447634
