33

C      4.502520   -0.998419   -0.971822
C      3.301905   -1.709237   -1.004807
C      2.134149   -1.138515   -0.491440
C      2.158743    0.158391    0.061938
C      3.375441    0.867374    0.092141
C      4.539001    0.285668   -0.424613
O      3.447206    2.151732    0.631364
O      1.007754    0.768224    0.587920
C     -0.297492    0.191229    0.591065
C     -1.253936    1.117936    1.369093
C     -2.717701    0.983184    0.861775
C     -2.993864   -0.400075    0.233115
C     -1.880761   -0.806151   -0.788665
O     -0.747466    0.047253   -0.742124
C     -2.426376   -0.799577   -2.187108
O     -2.951266   -1.839974   -2.664620
O     -2.405728    0.365535   -2.944142
O     -3.060530   -1.354047    1.263030
O     -3.038557    2.011247   -0.045041
O     -1.181659    0.799857    2.735797
H      5.405550   -1.442899   -1.369935
H      3.275741   -2.704979   -1.428440
H      1.220897   -1.715375   -0.529321
H      5.473637    0.831625   -0.401454
H      2.637118    2.620756    1.018419
H     -0.238560   -0.798379    1.106160
H     -0.921402    2.173721    1.222207
H     -3.407667    1.105937    1.725996
H     -3.993192   -0.348161   -0.263211
H     -1.543622   -1.848954   -0.582412
H     -3.509564   -2.154471    0.883706
H     -2.370454    1.998209   -0.777434
H     -1.539865    1.581334    3.232863
