37

C      4.307936   -1.075296   -0.719050
C      3.117407   -0.539627    0.079928
C      2.669590    0.879159   -0.361963
C      3.781106    1.911274   -0.079882
C      1.349522    1.280330    0.356979
C      0.860039    2.633156   -0.083126
O      0.729611    3.562016    0.755640
O      0.543698    2.865200   -1.417238
N      0.295115    0.299207    0.080690
C     -0.395529   -0.426210    1.109225
O     -0.113859   -0.241934    2.323299
C     -1.482361   -1.391217    0.743152
C     -2.790325   -0.640838    0.455526
C     -3.985554   -1.593913    0.234792
C     -5.259665   -0.795403    0.158040
O     -5.497707   -0.066359   -0.841892
O     -6.168262   -0.834276    1.207899
N     -3.819025   -2.404117   -0.980080
H      4.124497   -0.978923   -1.811000
H      5.239231   -0.537513   -0.448652
H      4.457473   -2.150771   -0.482115
H      3.372014   -0.539805    1.162878
H      2.283212   -1.258960   -0.066027
H      2.482190    0.861504   -1.459619
H      4.695672    1.677539   -0.661736
H      4.033930    1.927104    1.001688
H      3.464610    2.929551   -0.385776
H      1.555754    1.324126    1.450013
H      0.025590    0.127817   -0.914867
H     -1.632855   -2.113663    1.575519
H     -1.160487   -1.960522   -0.154441
H     -3.017365    0.018565    1.323368
H     -2.655209    0.008600   -0.437267
H     -4.063615   -2.275610    1.112061
H     -3.604316   -1.796241   -1.804647
H     -4.695091   -2.942925   -1.172662
H     -3.046972   -3.095939   -0.848660
