36

C     -3.802750    0.342564    0.803992
C     -2.778531    1.021778    0.172671
N     -2.099179    0.187030   -0.653606
C     -2.704728   -1.023127   -0.549492
C     -3.761286   -0.953914    0.340425
C     -2.290944   -2.254450   -1.247860
O     -2.944430   -3.320411   -1.097781
C     -0.929002    0.526864   -1.478602
C      0.361711    0.568601   -0.648692
C      0.736641   -0.809185   -0.080385
C      1.977271   -0.763708    0.829639
C      3.292119   -0.377038    0.111592
C      4.422368   -0.358697    1.105461
O      5.004084   -1.429879    1.424418
O      4.800069    0.829551    1.725174
N      3.618316   -1.294060   -0.985219
C     -2.428002    2.452811    0.462444
O     -1.615595    2.509358    1.600699
H     -4.493946    0.742741    1.534158
H     -4.418574   -1.761142    0.636161
H     -1.423158   -2.268158   -1.889576
H     -0.812595   -0.184921   -2.320561
H     -1.085155    1.516081   -1.956795
H      0.252280    1.299940    0.178682
H      1.173658    0.927777   -1.314770
H      0.889220   -1.535547   -0.906206
H     -0.106645   -1.185652    0.536620
H      2.098885   -1.765973    1.297082
H      1.786603   -0.042227    1.655037
H      3.198038    0.650005   -0.301712
H      4.333002    1.703993    1.517191
H      3.437488   -2.281637   -0.690221
H      2.999573   -1.084613   -1.801577
H     -3.364085    3.026472    0.643820
H     -1.908514    2.918826   -0.400476
H     -1.414206    3.469949    1.748265
