26

C      4.809384    0.066643    1.437439
O      3.491710   -0.421169    1.216481
C      3.082276   -0.953725   -0.009306
O      3.878166   -1.006551   -0.986634
C      1.670570   -1.419949   -0.174355
C      0.771787   -0.258725   -0.614930
C     -0.672255   -0.672338   -0.728903
O     -0.956103   -1.833653   -1.129576
C     -1.758596    0.298494   -0.468690
C     -3.018145    0.030401   -0.108596
C     -3.748758    1.293589   -0.001589
C     -5.025937    1.441493    0.332541
O     -2.896299    2.344832   -0.303742
C     -1.673793    1.758399   -0.593930
O     -0.657300    2.410171   -0.949884
O     -3.565026   -1.225485    0.156118
H      5.547528   -0.748826    1.283634
H      4.891812    0.434366    2.480738
H      5.025792    0.905205    0.742096
H      1.640131   -2.235013   -0.930372
H      1.308682   -1.828709    0.794168
H      1.111285    0.124970   -1.601357
H      0.862530    0.559139    0.133131
H     -5.641155    0.580149    0.558730
H     -5.463533    2.429886    0.381301
H     -3.014754   -2.073596    0.146176
