31

C     -3.043592    3.073275   -0.594177
C     -3.009469    1.548236   -0.637639
C     -1.856617    0.995291    0.212472
C     -1.760531   -0.509803    0.158525
O     -2.738689   -1.186342   -0.261910
C     -0.545689   -1.223319    0.613358
C      0.478358   -0.736562    1.313894
C      1.534192   -1.790233    1.551546
O      0.981910   -2.949502    0.932698
C     -0.241756   -2.621966    0.378016
O     -0.966270   -3.438276   -0.249266
C      2.887941   -1.425266    0.922195
C      2.785166   -1.209866   -0.558620
O      3.002241   -2.168807   -1.348904
O      2.396220    0.041638   -1.044944
C      2.184100    0.294060   -2.428063
O      0.562679    0.569058    1.788877
H     -3.185325    3.426339    0.449540
H     -3.888198    3.443976   -1.212393
H     -2.097387    3.492350   -0.998138
H     -3.978723    1.159122   -0.256006
H     -2.886179    1.221513   -1.693481
H     -0.903772    1.428047   -0.163101
H     -1.998478    1.304634    1.270482
H      1.651807   -1.967343    2.642152
H      3.283537   -0.502804    1.398471
H      3.613561   -2.241963    1.127001
H      3.120810    0.112326   -2.996303
H      1.376184   -0.363454   -2.813570
H      1.880224    1.352371   -2.562569
H      1.361744    0.873270    2.331014
