40

C     -0.490362    2.964972   -0.356404
O     -0.274788    1.593270   -0.604501
C     -1.106621    0.801736    0.224337
C     -1.054477   -0.695056   -0.244369
C      0.309476   -1.382745    0.184122
C      1.619564   -0.715415   -0.389383
C      2.345653    0.216152    0.632303
C      3.643276    0.821838    0.060807
O      3.364193    1.584606   -1.082817
O      2.606493   -0.451944    1.844957
O      2.520204   -1.681471   -0.885458
O      0.296188   -2.750246   -0.151618
O     -1.163917   -0.779090   -1.670113
C     -2.354500   -0.207942   -2.183389
O     -2.149919   -1.337258    0.420787
C     -2.474096   -2.632971   -0.051997
O     -0.676367    0.902399    1.578030
C     -1.757865    1.173171    2.441541
H     -0.208127    3.236900    0.684102
H      0.156873    3.551163   -1.040456
H     -1.544488    3.256007   -0.563245
H     -2.167221    1.138036    0.085495
H      0.351702   -1.354987    1.293007
H      1.338647   -0.100485   -1.267933
H      1.687914    1.074131    0.867576
H      4.105062    1.476055    0.833674
H      4.368909    0.014260   -0.189137
H      4.242740    1.897483   -1.423375
H      3.346560   -1.095393    1.691038
H      2.770455   -2.281351   -0.136630
H      0.273145   -2.818166   -1.141616
H     -2.218154    0.881295   -2.348719
H     -2.564758   -0.667511   -3.170551
H     -3.246087   -0.384646   -1.543035
H     -3.574672   -2.758732    0.003873
H     -2.178098   -2.834955   -1.102181
H     -2.026693   -3.396339    0.618014
H     -2.229463    2.150832    2.195443
H     -1.374029    1.235150    3.480207
H     -2.512353    0.357247    2.407613
