38

C      3.935202    2.385700    1.287447
O      3.644921    1.132291    1.897910
C      2.510704    0.351038    1.621633
C      2.352542   -0.869158    2.299099
C      1.229277   -1.662455    2.062310
C      0.250541   -1.260251    1.147569
C     -0.957667   -2.160561    0.907091
N     -1.987205   -1.516159    0.049938
C     -2.626086   -0.380180    0.757394
C     -1.879943    0.895186    0.337446
C     -0.725480    0.378936   -0.526860
C     -1.319673   -0.912138   -1.113942
C     -2.299020   -0.668140   -2.285472
C     -1.673215    0.240280   -3.296773
O     -1.988128    0.141470   -4.512187
C     -0.759908    1.306089   -2.863286
C     -0.322452    1.382310   -1.601799
C      0.412406   -0.052011    0.417006
C      1.532472    0.758896    0.693129
O      3.303123   -1.309855    3.220093
H      4.894722    2.770515    1.689352
H      3.133965    3.118612    1.519956
H      4.034998    2.261568    0.188394
H      1.116780   -2.597511    2.597839
H     -1.402483   -2.465834    1.880617
H     -0.603854   -3.094292    0.415634
H     -2.700570   -2.228073   -0.237127
H     -3.696895   -0.301861    0.463579
H     -2.600567   -0.499318    1.864233
H     -1.521578    1.469177    1.221070
H     -2.560780    1.549052   -0.252758
H     -0.509520   -1.572549   -1.511306
H     -3.243598   -0.202338   -1.934738
H     -2.552421   -1.641425   -2.759122
H     -0.452456    2.059745   -3.577965
H      0.245811    2.260841   -1.333609
H      1.648548    1.709073    0.202368
H      4.137486   -0.776669    3.433333
