37

C     -3.968664   -0.508948    1.084390
C     -5.278970   -0.038474    1.214579
C     -5.767811    0.935035    0.337287
C     -4.937888    1.440655   -0.672622
C     -3.627280    0.971778   -0.804909
C     -3.137124   -0.015417    0.065696
C     -1.715053   -0.494917   -0.054277
C     -0.774291    0.399149    0.771518
N      0.613773   -0.097789    0.772877
C      1.319951    0.214740   -0.480648
C      2.758636   -0.227499   -0.397775
C      3.742051    0.647581    0.090578
C      5.074850    0.225473    0.202120
C      5.426916   -1.079809   -0.165628
C      4.444241   -1.959695   -0.639397
C      3.116414   -1.538212   -0.749428
O      6.752480   -1.495699   -0.054788
O      6.052983    1.096123    0.679312
O     -7.075287    1.394345    0.478674
H     -3.601880   -1.255912    1.777547
H     -5.913954   -0.428098    2.000077
H     -5.305941    2.198478   -1.352451
H     -2.994086    1.378478   -1.583846
H     -1.417041   -0.486256   -1.123568
H     -1.642939   -1.546254    0.300722
H     -1.144694    0.418469    1.821616
H     -0.816242    1.446248    0.394696
H      0.624679   -1.131444    0.941546
H      1.119356    0.365531    1.564775
H      0.835570   -0.297579   -1.339484
H      1.281539    1.308895   -0.683541
H      3.473030    1.654680    0.385192
H      4.708071   -2.971669   -0.919158
H      2.366921   -2.233211   -1.107620
H      7.036901   -2.433666   -0.312113
H      5.829354    2.045640    0.953729
H     -7.458574    2.099249   -0.140257
