26

C     -1.660994    0.970385    1.227948
C     -0.122683    0.880332    1.127431
C      0.346591   -0.345938    0.345651
C      0.105963   -1.628289    0.711233
C     -0.511818   -2.114100    1.966831
O     -0.538838   -1.410650    3.008739
O     -1.025502   -3.407232    2.021850
C      1.013470   -0.145369   -0.966383
C      1.930382    0.807829   -1.172377
C      2.601065    0.976389   -2.470650
O      3.471526    1.876784   -2.605644
O      2.284982    0.155694   -3.549800
O      0.471611    0.897724    2.398907
C     -2.290513    1.122760   -0.126473
O     -2.414744    2.267302   -0.635336
O     -2.707849    0.006842   -0.845299
H     -1.933929    1.853454    1.845864
H     -2.092266    0.083889    1.731767
H      0.200572    1.801275    0.589566
H      0.395008   -2.413811    0.021111
H     -1.023783   -4.010723    1.208351
H      0.788202   -0.845449   -1.763048
H      2.224067    1.465646   -0.363844
H      2.747581    0.270009   -4.443541
H      0.354398    1.813481    2.764675
H     -2.612498   -0.928233   -0.467921
