18

C     -2.181225   -0.855814   -0.160846
C     -1.106037    0.183478   -0.030391
C      0.260140   -0.154338    0.148037
C      1.196439    0.890243    0.236271
C      0.783271    2.219452    0.158445
C     -0.569190    2.505305   -0.006861
N     -1.470815    1.494353   -0.096446
C      0.728114   -1.558850    0.257918
O      0.024363   -2.416797    0.854677
N      1.986169   -1.956132   -0.292317
H     -3.127949   -0.392294   -0.511363
H     -1.883870   -1.628101   -0.901207
H     -2.369215   -1.329087    0.825292
H      2.247483    0.681429    0.390873
H      1.505725    3.021910    0.233838
H     -0.904373    3.532227   -0.064633
H      2.325633   -2.935816   -0.168716
H      2.555337   -1.301172   -0.872571
