15

C     -2.011163    0.156518    0.716619
C     -1.344756    0.088477   -0.653113
N      0.078243    0.405165   -0.549735
C      1.037987   -0.515016   -0.012273
O      0.681525   -1.665883    0.359369
C      2.478592   -0.127703    0.066896
H     -1.576272   -0.602682    1.399717
H     -1.872357    1.166471    1.157563
H     -3.098542   -0.042164    0.611792
H     -1.836307    0.824849   -1.325156
H     -1.479283   -0.922343   -1.095175
H      0.414075    1.317403   -0.933610
H      3.035013   -0.829818    0.723593
H      2.923622   -0.150715   -0.949461
H      2.569623    0.897440    0.482972
