49

C     -4.640667   -1.337751    2.664443
O     -4.623907   -0.684006    1.399462
C     -3.459138   -0.340973    0.693814
C     -2.175733   -0.615894    1.200295
C     -1.023536   -0.271562    0.475903
C     -1.171083    0.366941   -0.769640
C     -2.446966    0.650715   -1.287576
C     -3.585724    0.294082   -0.553857
O     -4.845124    0.580781   -1.083215
O     -2.624001    1.285294   -2.527605
C     -1.562227    1.701280   -3.380757
C      0.348574   -0.609090    1.052998
C      0.865854   -2.003183    0.648560
C      1.337250   -2.004773   -0.801368
C      1.346354   -3.490184   -1.187476
O      0.285768   -4.034529   -0.406252
C     -0.031702   -3.180849    0.638688
O     -0.881705   -3.456802    1.524894
C      2.615349   -1.169392   -0.956823
C      2.443058    0.190151   -0.276122
C      3.365578    1.212789   -0.586037
C      3.228646    2.440767    0.049187
C      2.248518    2.679938    0.953082
C      1.315757    1.712915    1.305764
C      1.402553    0.441386    0.695954
O      2.354957    3.977386    1.415794
C      3.473868    4.590918    0.761351
O      4.002990    3.575022   -0.101620
O      3.747501   -1.848890   -0.468423
H     -4.127480   -0.711821    3.424711
H     -5.693177   -1.487950    2.980577
H     -4.147545   -2.329928    2.588203
H     -2.064492   -1.098862    2.161414
H     -0.292140    0.646224   -1.332224
H     -5.702937    0.346616   -0.598232
H     -1.990540    2.169640   -4.290393
H     -0.925976    2.449241   -2.861937
H     -0.951766    0.825105   -3.685928
H      0.263129   -0.614122    2.163393
H      1.706685   -2.268054    1.327097
H      0.559495   -1.539812   -1.445733
H      2.303397   -3.974883   -0.898213
H      1.150965   -3.637431   -2.270981
H      2.770073   -0.999447   -2.044777
H      4.163830    1.053563   -1.299988
H      0.540253    1.939754    2.026521
H      4.236401    4.893715    1.509244
H      3.136810    5.463779    0.163858
H      3.753953   -1.777812    0.521058
