43

C      0.803624   -2.838916    0.108679
O      0.941198   -1.803116   -0.863709
C      0.779144   -0.459091   -0.518861
C     -0.460816    0.032104   -0.306371
C     -0.636604    1.447756    0.211580
C      0.522379    1.859561    1.138665
C      1.841055    1.748504    0.342950
C      1.981236    0.417940   -0.348999
N      3.146916    0.162766   -0.886208
C      3.559656   -0.981503   -1.699393
C      3.886177   -2.165919   -0.842588
O      3.772158   -3.326564   -1.313500
O      4.364662   -1.991284    0.451303
C      0.299218    3.310833    1.622408
O      1.358634    3.726705    2.436083
O      0.535822    0.987226    2.247367
N     -1.614539   -0.755047   -0.669877
C     -2.998015   -0.254776   -0.630212
C     -3.902151   -1.070034   -1.573487
O     -3.432015   -0.999016   -2.896383
C     -3.552675   -0.314687    0.768449
O     -3.013426   -1.054882    1.652117
O     -4.685091    0.432468    1.079441
H     -0.207193   -2.814386    0.577371
H      0.947248   -3.821752   -0.390484
H      1.575212   -2.715023    0.905987
H     -0.702753    2.137421   -0.658556
H     -1.579955    1.533316    0.787161
H      1.877637    2.546149   -0.434504
H      2.710070    1.902788    1.020907
H      4.481738   -0.703796   -2.248899
H      2.784285   -1.220705   -2.459355
H      4.591105   -2.788415    1.036332
H     -0.645512    3.364811    2.202295
H      0.210521    3.996763    0.749808
H      1.172680    4.674168    2.672403
H      1.342949    1.185486    2.787244
H     -1.462098   -1.700523   -1.099735
H     -3.018963    0.800905   -0.980438
H     -3.917154   -2.133492   -1.252298
H     -4.951940   -0.693009   -1.526875
H     -3.636987   -0.081115   -3.213264
H     -5.067436    0.419379    2.015445
