31

C      4.054715   -0.127531   -2.042740
C      2.802805   -0.159761   -1.208597
C      2.836706   -0.542237    0.150729
C      1.647466   -0.566426    0.910432
C      0.419792   -0.179896    0.313126
C      0.404781    0.171144   -1.046369
C      1.578378    0.181034   -1.795514
C     -0.840126   -0.091083    1.097652
O     -0.810275    0.360462    2.274356
C     -2.164834   -0.513564    0.516276
C     -3.033842    0.689741    0.083913
C     -4.181270    0.207005   -0.762868
O     -5.100057   -0.490301   -0.256158
O     -4.219764    0.510705   -2.117970
N     -3.540528    1.438536    1.242634
N      1.694530   -1.040201    2.266342
O      4.036275   -0.915629    0.765311
H      4.497155   -1.144496   -2.095550
H      3.849149    0.211763   -3.080427
H      4.788153    0.574703   -1.593616
H     -0.514533    0.464123   -1.534203
H      1.529083    0.468176   -2.838797
H     -1.981517   -1.178094   -0.356983
H     -2.710907   -1.123778    1.268554
H     -2.419358    1.377672   -0.538044
H     -2.751749    1.913619    1.736268
H     -4.205324    2.180768    0.923100
H     -4.035027    0.802756    1.910459
H      0.839516   -1.371702    2.763100
H      2.603871   -1.177104    2.760472
H      4.926739   -0.930404    0.285114
