15

C      2.169672   -0.409987    0.136002
C      0.696911   -0.133679    0.072311
C     -0.212245   -1.191925   -0.028902
C     -1.572687   -0.898979   -0.122621
O     -2.413094   -1.833926   -0.206621
N     -1.990042    0.395694   -0.125180
C     -1.093123    1.416449   -0.043770
O     -1.496620    2.610456   -0.055678
N      0.239182    1.150236    0.048045
H      2.575685   -0.485542   -0.894156
H      2.366917   -1.360486    0.676127
H      2.694683    0.407566    0.673533
H      0.129646   -2.220397   -0.034191
H     -3.011391    0.609313   -0.195594
H      0.916507    1.945207    0.100695
