21

C     -0.867683    1.587623   -0.163896
C     -1.193040    0.107876   -0.411156
C     -2.538447   -0.245166    0.236583
C     -0.085064   -0.828726    0.124864
C      1.264618   -0.677226   -0.612333
C      2.298538    0.120049    0.194985
O      2.657542   -0.568906    1.362743
H     -1.718803    2.227498   -0.480846
H     -0.665331    1.770725    0.913254
H      0.015373    1.895741   -0.760736
H     -1.297561   -0.049528   -1.507780
H     -2.802380   -1.303164    0.023957
H     -3.345386    0.397108   -0.176636
H     -2.493064   -0.100729    1.337641
H      0.038032   -0.682022    1.220846
H     -0.425221   -1.878974   -0.014155
H      1.121904   -0.193526   -1.602974
H      1.685193   -1.687069   -0.813425
H      1.887211    1.110142    0.477847
H      3.199776    0.302572   -0.433362
H      3.263793   -1.304299    1.084581
