33

C      5.431635    0.096812    0.175991
O      4.339840    1.021338    0.274021
C      3.162735    0.305480    0.165517
C      3.446587   -1.005770    0.006105
O      4.816262   -1.187035    0.005517
C      2.450870   -1.959879   -0.129273
C      1.103758   -1.530044   -0.097234
C      0.786430   -0.143877    0.071010
C      1.858006    0.782044    0.204081
C     -0.661990    0.274090    0.099936
C     -1.689974   -0.708891   -0.039567
C     -3.067998   -0.332104   -0.014650
C     -3.429662    1.014830    0.147980
C     -2.416191    1.949205    0.281179
C     -1.096863    1.608774    0.259860
O     -0.355168    2.766771    0.416652
C     -1.244607    3.880799    0.541670
O     -2.553047    3.313543    0.449626
C     -4.058942   -1.311044   -0.153045
C     -3.688510   -2.644068   -0.313779
N     -2.376378   -2.990353   -0.335944
C     -1.379296   -2.072696   -0.205119
C      0.017923   -2.518368   -0.238342
O      0.279409   -3.743467   -0.387351
H      6.061755    0.339872   -0.705132
H      6.032521    0.112949    1.109364
H      2.716759   -3.001696   -0.255282
H      1.723615    1.838680    0.334055
H     -4.466504    1.327893    0.170428
H     -1.107625    4.372296    1.527589
H     -1.078366    4.599411   -0.287986
H     -5.109941   -1.047690   -0.137047
H     -4.447046   -3.407803   -0.421508
