39

C      1.918211    2.900808    1.219267
C      1.625390    1.700056    0.361511
C      0.342847    1.397744    0.071584
C     -0.067968    0.223616   -0.811352
C      1.070605   -0.819659   -0.996367
C      2.395003   -0.073632   -1.256947
C      2.769424    0.811012   -0.066682
C      1.173762   -1.819261    0.158831
C      0.193858   -1.945179    1.077465
C     -1.054895   -1.105569    1.087281
C     -1.356223   -0.477094   -0.291155
C     -2.625437    0.443525   -0.239027
C     -3.896307   -0.367667    0.077200
C     -2.846704    1.212881   -1.554220
C      2.299358   -2.824763    0.194931
H      1.580484    3.822999    0.701062
H      1.385259    2.810709    2.189567
H      3.005920    2.989563    1.424870
H     -0.428506    2.088221    0.397015
H     -0.265723    0.635843   -1.823166
H      0.839399   -1.414184   -1.908273
H      2.280137    0.566226   -2.160299
H      3.226522   -0.773855   -1.475155
H      3.642289    1.436760   -0.352501
H      3.072389    0.176820    0.793794
H      0.298804   -2.680559    1.871417
H     -1.887910   -1.770550    1.392790
H     -0.946160   -0.314452    1.860006
H     -1.583346   -1.307985   -0.998388
H     -2.509639    1.191774    0.574388
H     -4.017385   -1.206106   -0.641898
H     -3.865111   -0.770493    1.109588
H     -4.797537    0.279805    0.020579
H     -2.069176    1.992698   -1.689326
H     -3.822820    1.743404   -1.540763
H     -2.831590    0.518152   -2.421238
H      1.896279   -3.848176    0.352783
H      2.993690   -2.576771    1.024841
H      2.862809   -2.846661   -0.758794
