39

C     -2.765476   -2.904379    0.735442
C     -2.065289   -1.780653    0.022947
C     -0.800824   -1.457452    0.348983
C     -0.116264   -0.293052   -0.342604
C      1.232936    0.068507    0.337997
C      1.703463    1.443623   -0.167691
C      0.688230    2.516301    0.212912
C     -0.719966    2.167106   -0.219223
C     -1.107782    0.874490   -0.416997
C     -2.557087    0.543802   -0.773864
C     -2.776403   -0.957993   -1.026838
C     -1.714183    3.303041   -0.301217
C      2.321605   -1.044742    0.154494
C      2.955748   -1.079552   -1.247903
C      3.421505   -0.934329    1.221959
H     -2.817855   -2.684562    1.822705
H     -2.206204   -3.851283    0.581428
H     -3.798283   -3.041674    0.352865
H     -0.295682   -2.006364    1.139210
H      0.083926   -0.596026   -1.391609
H      1.030235    0.166771    1.429919
H      2.683052    1.713354    0.279230
H      1.814396    1.434351   -1.274337
H      1.000326    3.473683   -0.258053
H      0.696457    2.660789    1.315089
H     -3.215177    0.855772    0.065785
H     -2.859972    1.100556   -1.686406
H     -2.365520   -1.223986   -2.025109
H     -3.865881   -1.175273   -1.039986
H     -2.122151    3.377666   -1.330776
H     -1.237107    4.274373   -0.051754
H     -2.543243    3.141345    0.418939
H      1.845978   -2.036012    0.310388
H      3.612989   -1.970484   -1.340926
H      2.180900   -1.152526   -2.036991
H      3.576239   -0.176847   -1.430108
H      2.976420   -0.953212    2.239478
H      4.118730   -1.795673    1.140817
H      4.007214    0.000542    1.102108
