43

C      6.662710   -1.577747   -0.836195
O      5.750809   -0.746989   -0.124831
C      4.359422   -0.745055   -0.314867
C      3.569540    0.128958    0.455558
C      2.168586    0.146637    0.297917
C      1.563504   -0.679458   -0.671783
C      0.067827   -0.693831   -0.865813
C     -0.613513    0.539834   -0.239224
C     -2.135246    0.391347   -0.263674
C     -2.799958    0.068496   -1.473610
C     -4.186595   -0.027682   -1.462191
C     -4.914181    0.200703   -0.343646
C     -4.320693    0.559782    0.859308
C     -2.915148    0.686341    0.896432
C     -2.255757    1.105642    2.178298
C     -0.872178    1.681745    1.905913
N     -0.086137    0.702771    1.137662
C      1.330209    1.116545    1.097987
O     -6.256723    0.034456   -0.624042
C     -6.378966   -0.319052   -2.008656
O     -5.034005   -0.345286   -2.506200
C      2.354816   -1.555760   -1.425047
C      3.737792   -1.589486   -1.251668
O      4.166862    0.988018    1.381293
H      6.432908   -2.647438   -0.646109
H      7.693566   -1.368342   -0.484330
H      6.607781   -1.361284   -1.924001
H     -0.335742   -1.619033   -0.398854
H     -0.142990   -0.729101   -1.955469
H     -0.361500    1.437121   -0.851722
H     -2.263331   -0.095456   -2.397377
H     -4.929176    0.752072    1.734045
H     -2.871012    1.875090    2.693921
H     -2.166104    0.220373    2.844366
H     -0.959261    2.645371    1.352528
H     -0.389345    1.886622    2.887542
H      1.432451    2.131529    0.650951
H      1.723775    1.152849    2.137931
H     -6.843975   -1.322222   -2.108320
H     -6.972532    0.447882   -2.549016
H      1.897523   -2.215528   -2.152478
H      4.315719   -2.275865   -1.855104
H      5.168271    1.014434    1.530444
