50

C     -0.934853   -0.202427   -2.266926
C     -0.448203    0.427231   -0.939488
C     -0.667478    1.988552   -0.970620
C     -1.905342    2.509558   -0.220540
C     -3.074839    1.536310   -0.304267
C     -2.755248    0.176016    0.393106
C     -1.205018   -0.172913    0.304679
C     -0.894244   -1.670720    0.593613
C      0.518301   -2.138461    0.215467
C      1.562550   -1.018381    0.074494
C      1.061941    0.120782   -0.828077
C      1.987843    0.871435   -1.498768
C      3.489283    0.655688   -1.346807
C      3.825448   -0.448520   -0.318983
C      2.853906   -1.596566   -0.535168
C      3.449888   -0.000481    1.062870
C      4.242355    0.711573    1.869664
C      2.058016   -0.425857    1.410429
C     -3.144658    0.316548    1.891151
C     -3.638686   -0.914157   -0.215695
O     -3.838519   -0.969448   -1.458861
O     -4.194210   -1.903656    0.594695
H     -0.249938    0.064734   -3.100520
H     -0.971078   -1.308997   -2.200430
H     -1.932576    0.166391   -2.561607
H      0.196382    2.513386   -0.505822
H     -0.713246    2.346931   -2.023232
H     -1.648894    2.692697    0.845389
H     -2.209488    3.487539   -0.653271
H     -3.333235    1.415151   -1.375741
H     -3.970332    2.012411    0.153476
H     -0.736915    0.361026    1.161439
H     -1.598634   -2.338306    0.058046
H     -1.045832   -1.860105    1.678521
H      0.865286   -2.892750    0.955997
H      0.452150   -2.672689   -0.759138
H      1.672709    1.652029   -2.183320
H      3.970145    1.611834   -1.048048
H      3.901816    0.365302   -2.336566
H      4.883763   -0.782641   -0.387138
H      3.196653   -2.498120    0.023635
H      2.739954   -1.865743   -1.610186
H      5.238463    0.999346    1.548826
H      3.898204    1.011468    2.854373
H      2.093876   -1.193721    2.213595
H      1.455331    0.444802    1.745130
H     -2.907836   -0.609096    2.456838
H     -2.598768    1.154715    2.373514
H     -4.233719    0.513163    2.000620
H     -4.762474   -2.642861    0.198812
