35

C      1.743651   -3.198313    1.237264
C      1.010044   -2.083192    1.174449
C      0.957487   -1.246841   -0.082527
C     -0.228412   -0.314726   -0.047451
C     -1.470386   -0.769758   -0.261770
C     -2.683333    0.082249   -0.208865
C     -3.930942   -0.535041   -0.016822
C     -5.101972    0.227034    0.030873
C     -5.043539    1.617359   -0.123983
C     -3.809545    2.239634   -0.331020
C     -2.635606    1.481148   -0.378621
O     -6.203629    2.387159   -0.077870
C      2.243208   -0.463070   -0.257749
C      2.975318   -0.564454   -1.453939
C      4.156758    0.163465   -1.624895
C      4.620066    1.003875   -0.608267
C      3.894927    1.116024    0.584926
C      2.713521    0.389740    0.759587
O      5.798886    1.722592   -0.793473
H      2.313874   -3.540041    0.378627
H      1.777806   -3.775200    2.155642
H      0.466409   -1.763891    2.060041
H      0.821574   -1.932635   -0.950292
H     -0.064164    0.722081    0.214812
H     -1.607013   -1.830317   -0.442969
H     -3.998492   -1.609402    0.105254
H     -6.053850   -0.264448    0.187099
H     -3.760598    3.313175   -0.462758
H     -1.703787    1.993907   -0.571680
H     -7.113283    1.965562    0.069382
H      2.633626   -1.206951   -2.255831
H      4.712578    0.075100   -2.549740
H      4.244827    1.766264    1.376568
H      2.163306    0.491762    1.686794
H      6.160687    2.340147   -0.076104
