35

C      0.901632    0.018348   -1.780260
C      0.114848    1.336515   -1.646774
C     -0.303152    1.605508   -0.179868
O      0.806514    1.459454    0.714672
C      1.889186    0.604141    0.470602
C      1.989316   -0.099288   -0.745055
C      3.072840   -0.964762   -0.956169
C      4.062099   -1.105127    0.021354
C      3.970530   -0.390661    1.223437
C      2.883517    0.461409    1.444117
O      4.951093   -0.522268    2.204063
C     -1.467636    0.725488    0.237845
C     -2.777045    1.139606   -0.048170
C     -3.871698    0.336314    0.293060
C     -3.672581   -0.901819    0.918624
C     -2.355661   -1.337321    1.197396
C     -1.270493   -0.523576    0.851975
O     -2.080041   -2.562527    1.808437
O     -4.799151   -1.662425    1.241805
O     -5.168524    0.763106    0.010446
O      0.859835    2.414595   -2.159886
H      0.206724   -0.840387   -1.660522
H      1.337429   -0.042073   -2.801573
H     -0.801687    1.251832   -2.271268
H     -0.637144    2.664169   -0.108151
H      3.150961   -1.529928   -1.876704
H      4.896934   -1.771470   -0.154628
H      2.808661    1.010098    2.374562
H      5.750275   -1.131845    2.075190
H     -2.948333    2.089378   -0.540380
H     -0.272839   -0.880243    1.065871
H     -2.786863   -3.225890    2.090789
H     -4.762814   -2.562463    1.697860
H     -5.348544    1.652120   -0.441446
H      1.671813    2.521993   -1.599588
