50

C     -2.696318   -0.532075   -2.672470
C     -3.326606   -0.390958   -1.303504
C     -2.625705   -0.731134   -0.184346
C     -3.245085   -0.701614    1.220537
C     -4.793915   -0.654679    1.162565
C     -5.286110    0.358282    0.138376
C     -4.802072   -0.029465   -1.261338
O     -5.049046    1.039007   -2.139533
C     -2.705514    0.534165    1.976438
C     -2.848265   -1.970172    2.010993
C     -1.182181   -1.059395   -0.288009
C     -0.274085   -0.110969   -0.544313
C      1.180363   -0.387822   -0.623548
C      2.032024    0.597295   -0.276459
C      3.504421    0.454027   -0.266747
C      4.287745    1.475310    0.097036
C      5.768578    1.380268    0.135926
C      6.422389    2.126846    1.050592
C      7.880453    2.129549    1.299225
O      8.651695    1.288533    0.765943
O      8.409311    3.066282    2.177605
C      6.492321    0.487624   -0.844789
C      1.676120   -1.739490   -1.082261
H     -2.252077   -1.543603   -2.789069
H     -1.908498    0.236565   -2.810118
H     -3.444887   -0.404747   -3.481502
H     -5.215708   -0.400589    2.159747
H     -5.198173   -1.654221    0.884116
H     -6.397208    0.377933    0.149558
H     -4.935862    1.379124    0.399339
H     -5.368506   -0.929612   -1.597511
H     -6.022031    1.029668   -2.337684
H     -3.192269    0.633194    2.970624
H     -1.610857    0.446127    2.142315
H     -2.880332    1.467240    1.402440
H     -3.367760   -1.996856    2.993082
H     -1.755517   -1.999898    2.211631
H     -3.124704   -2.885284    1.443605
H     -0.872671   -2.071975   -0.068153
H     -0.610311    0.915935   -0.647167
H      1.621816    1.553116    0.037591
H      3.954577   -0.496104   -0.520493
H      3.825559    2.399258    0.428147
H      5.842604    2.782265    1.691023
H      6.870272   -0.418238   -0.326702
H      7.332667    1.034659   -1.320437
H      5.827377    0.174209   -1.675151
H      0.864824   -2.335771   -1.548438
H      2.457769   -1.620535   -1.861434
H      2.089388   -2.301278   -0.218802
