45

C     -5.157778   -0.257802    0.525981
C     -4.211173    0.822506    0.957299
C     -2.874819    0.734389    0.817234
C     -1.963187    1.859017    1.253712
N     -0.562422    1.519339    0.899844
C     -0.149591    0.271587    1.615876
C     -1.125569   -0.903630    1.286857
C     -2.136819   -0.446700    0.216963
C     -1.331957    0.060702   -1.010617
C     -0.466398    1.306071   -0.579841
C      1.019563    1.159707   -1.005218
C      1.742946    0.268572   -0.044041
C      1.245863   -0.082960    1.193652
N      2.114857   -0.867585    1.869798
C      3.186402   -0.980660    1.059441
C      2.997241   -0.293168   -0.117473
C      3.967307   -0.256751   -1.116327
C      5.170188   -0.958106   -0.889560
C      5.362752   -1.667880    0.318736
C      4.362921   -1.684163    1.309049
O      6.177515   -0.959347   -1.851349
C     -2.264072    0.384060   -2.195729
O     -1.518937    0.754781   -3.324333
H     -6.201668    0.055387    0.736496
H     -5.056428   -0.440164   -0.564667
H     -4.949488   -1.193192    1.086769
H     -4.635689    1.720189    1.398587
H     -2.052224    2.013234    2.351372
H     -2.261234    2.806051    0.752551
H     -0.142268    0.458659    2.712566
H     -1.672623   -1.203243    2.208317
H     -0.585129   -1.808152    0.927158
H     -2.797933   -1.294767   -0.060749
H     -0.668929   -0.772606   -1.338318
H     -0.845567    2.219639   -1.093027
H      1.505699    2.158514   -0.985265
H      1.097273    0.756167   -2.037491
H      1.978916   -1.300275    2.810528
H      3.800148    0.290061   -2.035579
H      6.287649   -2.204696    0.486337
H      4.505512   -2.224983    2.235647
H      6.072321   -0.461689   -2.727772
H     -2.899348   -0.499235   -2.434908
H     -2.943960    1.221589   -1.930730
H     -1.119865   -0.078467   -3.687776
