18

C      2.561838   -0.739457    0.028219
C      1.215136   -0.075972   -0.061224
C      1.115658    1.296037   -0.294952
N     -0.100911    1.892220   -0.339777
C     -1.244147    1.176824   -0.163835
O     -2.353997    1.777218   -0.194845
N     -1.188462   -0.177964    0.049034
C      0.030386   -0.804253    0.130400
O      0.097201   -2.040278    0.381826
C     -2.427715   -0.942228    0.271499
H      2.581454   -1.645802   -0.613192
H      3.372703   -0.060268   -0.311340
H      2.761438   -1.033064    1.080084
H      2.007589    1.895342   -0.433211
H     -0.153452    2.922736   -0.506732
H     -2.324122   -1.989254   -0.085389
H     -3.279068   -0.503194   -0.291274
H     -2.671531   -0.948644    1.354710
