23

C     -4.446990    0.679725    0.011653
O     -3.163079    0.192805    0.382549
C     -2.355475   -0.540915   -0.491084
O     -2.737619   -0.787505   -1.667751
C     -1.004540   -0.995454   -0.037846
C      0.040515    0.093688   -0.295749
C      1.430311   -0.355998    0.169947
C      2.475306    0.733326   -0.087842
C      3.826629    0.280232    0.366216
O      4.205767    0.507712    1.546236
O      4.646919   -0.431748   -0.503217
H     -4.355684    1.374225   -0.850238
H     -4.890990    1.226624    0.868541
H     -5.111876   -0.168060   -0.257964
H     -0.725161   -1.924956   -0.580821
H     -1.047264   -1.227612    1.048402
H     -0.249579    1.018582    0.250857
H      0.072799    0.321744   -1.384420
H      1.397867   -0.584122    1.258599
H      1.720439   -1.280793   -0.376763
H      2.195626    1.662668    0.455212
H      2.517966    0.965582   -1.174090
H      5.558112   -0.759750   -0.206039
