34

C     -5.866220    1.135408   -1.354377
C     -5.132502    0.224679   -0.424748
O     -5.758375   -0.690796    0.175428
N     -3.729412    0.409522   -0.201972
C     -2.981167   -0.456269    0.710739
C     -1.489482   -0.097786    0.735994
C     -0.783960   -0.487305   -0.573129
C      0.700357   -0.107912   -0.554396
N      1.415844   -0.889737    0.463924
C      2.754500   -0.348324    0.745971
C      3.736169   -0.566649   -0.421891
C      5.180321   -0.220488   -0.040100
N      5.335001    1.216952    0.169876
H     -6.899697    0.767058   -1.528007
H     -5.334826    1.182522   -2.327819
H     -5.913584    2.153065   -0.914144
H     -3.247355    1.194745   -0.696094
H     -3.393732   -0.338741    1.736090
H     -3.106562   -1.518878    0.407913
H     -1.372812    0.992033    0.924767
H     -1.015856   -0.642385    1.581513
H     -0.881929   -1.582026   -0.743052
H     -1.266231    0.034235   -1.427534
H      1.126004   -0.313380   -1.561221
H      0.790094    0.983160   -0.353167
H      1.503040   -1.880988    0.137200
H      3.147531   -0.863377    1.649081
H      2.683179    0.732860    0.995388
H      3.437181    0.053000   -1.294189
H      3.706028   -1.634105   -0.730758
H      5.488256   -0.780559    0.871364
H      5.845377   -0.538055   -0.873347
H      6.359271    1.425780    0.198768
H      4.965551    1.452743    1.119237
