49

C      6.872664    0.019988    0.034250
C      5.642249   -0.675387    0.615292
C      4.669613    0.300955    1.299666
C      4.057226    1.364995    0.366995
C      3.294074    0.807756   -0.851437
C      2.152170   -0.166777   -0.512519
C      1.044454    0.483637    0.324983
C     -0.107180   -0.456311    0.482909
O     -0.156113   -1.224986    1.481705
O     -1.092423   -0.504086   -0.510414
C     -2.261312   -1.322089   -0.434411
C     -2.781673   -1.590312   -1.856938
C     -3.988349   -2.482007   -1.879684
O     -4.993694   -2.169104   -2.569776
O     -3.981758   -3.686464   -1.186690
C     -3.298679   -0.764290    0.597480
N     -3.927356    0.582581    0.360953
C     -5.060438    0.497455   -0.593903
C     -4.481024    1.052443    1.657848
C     -2.958901    1.599302   -0.110530
H      7.367221    0.645545    0.807431
H      7.596455   -0.744642   -0.318416
H      6.591725    0.653845   -0.832261
H      5.125379   -1.250744   -0.180931
H      5.985556   -1.410130    1.375397
H      3.855975   -0.280670    1.782262
H      5.207143    0.823618    2.120712
H      4.862052    2.037587    0.001719
H      3.375448    2.007542    0.963385
H      2.874358    1.664478   -1.422491
H      4.008660    0.300098   -1.533309
H      1.715094   -0.519977   -1.472761
H      2.550234   -1.061692    0.011199
H      1.430070    0.754311    1.330829
H      0.686520    1.410234   -0.173688
H     -1.944715   -2.317638   -0.046349
H     -1.978907   -2.106326   -2.426477
H     -2.966647   -0.642848   -2.398982
H     -4.092316   -1.532179    0.738780
H     -2.760022   -0.755316    1.572172
H     -5.757076   -0.327343   -0.325098
H     -4.721343    0.349870   -1.633752
H     -5.648905    1.442752   -0.605645
H     -3.675918    1.187753    2.415260
H     -4.999198    2.032785    1.552767
H     -5.216445    0.322411    2.066054
H     -3.429139    2.607473   -0.158152
H     -2.087177    1.667564    0.576884
H     -2.597634    1.374340   -1.135936
