35

C      4.642660    0.367264   -0.812066
C      3.330841   -0.343626   -0.599887
C      2.164485    0.357606   -0.204245
C      0.952368   -0.349472   -0.043111
C      0.912848   -1.749842   -0.232724
C      2.085364   -2.432773   -0.588694
C      3.278379   -1.735711   -0.769584
C     -0.311335   -2.420709   -0.061343
O     -0.381709   -3.671556   -0.222025
C     -1.456738   -1.685312    0.287512
C     -2.710195   -2.298299    0.462482
C     -3.826651   -1.529983    0.796550
C     -3.707333   -0.149268    0.964481
C     -2.462907    0.482374    0.809593
C     -1.335375   -0.287377    0.459053
O     -0.157433    0.304951    0.288242
C     -2.357163    1.977454    0.970311
C     -2.404831    2.645951   -0.369414
O     -1.336369    2.999135   -0.934505
O     -3.620506    2.847222   -1.016295
C      2.194585    1.856938   -0.015138
H      5.391992   -0.293663   -1.297698
H      4.499326    1.249884   -1.470073
H      5.050531    0.697338    0.166123
H      2.082742   -3.506033   -0.735215
H      4.166559   -2.288447   -1.050510
H     -2.831170   -3.367242    0.336581
H     -4.790258   -2.006519    0.923120
H     -4.588069    0.428559    1.216260
H     -3.187001    2.363772    1.600840
H     -1.411540    2.240184    1.492890
H     -4.493470    2.557578   -0.591803
H      1.320678    2.223649    0.562346
H      2.196725    2.354839   -1.007159
H      3.099969    2.161131    0.549861
