27

C      0.936178   -1.676262    0.012802
N      1.063815   -0.218819   -0.069752
C      2.224856    0.478795   -0.129017
C      1.945368    1.835924   -0.163365
C      0.568365    1.888580   -0.150006
O     -0.118081    2.944284   -0.194896
N      0.052390    0.643978   -0.103733
C     -1.347093    0.309284   -0.107551
C     -2.215366    0.890336    0.830812
C     -3.577429    0.573900    0.820801
C     -4.082104   -0.318131   -0.129495
C     -3.225849   -0.892273   -1.073239
C     -1.863287   -0.578142   -1.065799
C      3.599543   -0.116097   -0.090335
O      3.926688   -0.442733    1.230459
H      0.006205   -1.956527    0.549423
H      1.786374   -2.110639    0.578568
H      0.921178   -2.107708   -1.009406
H      2.644035    2.661725   -0.197970
H     -1.833681    1.578009    1.574823
H     -4.241488    1.019841    1.549923
H     -5.136657   -0.561657   -0.136735
H     -3.618704   -1.577142   -1.813553
H     -1.213368   -1.014260   -1.813208
H      3.629183   -1.026019   -0.729319
H      4.335516    0.616491   -0.490367
H      4.833412   -0.844737    1.197382
