42

C      6.037609    0.935722    0.319924
N      4.584541    0.703141    0.302630
C      4.076734    0.821997   -1.068274
C      2.548082    0.754206   -1.082641
N      1.963100   -0.207135   -0.119699
C      2.781690   -0.851401    0.933062
C      4.290787   -0.652872    0.778286
C      0.511347   -0.397801   -0.101254
C     -0.330559    0.261743   -1.029434
C     -1.725831    0.084699   -1.018371
C     -2.307318   -0.760787   -0.048507
C     -1.485890   -1.426884    0.864391
C     -0.103734   -1.246767    0.846445
N     -3.730099   -0.933033    0.044929
C     -4.404257   -2.099923   -0.036845
N     -5.736685   -1.949056    0.145363
C     -5.892919   -0.627047    0.360734
C     -4.667367   -0.004707    0.308418
N     -4.406281    1.377024    0.569399
C     -7.159182   -0.004104    0.635177
N     -8.178222    0.497658    0.856082
C     -2.546666    0.746814   -2.061094
O     -3.536518    0.148878   -2.560066
O     -2.237154    2.027357   -2.515299
H      6.425029    0.854731    1.358370
H      6.263903    1.965025   -0.032716
H      6.574952    0.204820   -0.325674
H      4.494593    0.022264   -1.724092
H      4.380738    1.798785   -1.507514
H      2.149559    1.768367   -0.859725
H      2.249578    0.473990   -2.115917
H      2.473826   -0.445159    1.921580
H      2.599404   -1.947793    0.927364
H      4.701947   -1.422466    0.083364
H      4.762592   -0.822412    1.772333
H      0.087689    0.902076   -1.790363
H     -1.925389   -2.074794    1.612876
H      0.466851   -1.776634    1.594105
H     -3.933657   -3.056262   -0.226150
H     -3.429554    1.743671    0.586442
H     -5.190453    2.035580    0.771832
H     -1.496815    2.578489   -2.098750
