40

C     -1.540769    2.374537    3.768927
O     -0.908009    1.645897    2.722088
C     -1.570887    0.763859    1.852273
C     -0.819329    0.103645    0.839467
C     -1.455597   -0.799354   -0.051776
C     -2.838114   -0.983799    0.092860
C     -3.551441   -0.344328    1.053519
C     -2.962684    0.531645    1.954609
O     -4.880898   -0.711321    0.970605
C     -5.017160   -1.641269   -0.110032
O     -3.693922   -1.787526   -0.639376
O     -0.690616   -1.474920   -1.017685
C     -1.210596   -2.381213   -1.983138
C      0.639659    0.341653    0.736793
O      1.347999    0.177424    1.766799
C      1.289993    0.743346   -0.539602
C      0.587745    1.312697   -1.527687
C      2.746246    0.542666   -0.717545
C      3.652956    1.208511    0.124369
C      5.029420    1.034070   -0.041508
C      5.512786    0.196011   -1.048490
C      4.621015   -0.471248   -1.891701
C      3.237449   -0.304369   -1.731834
O      2.351446   -0.983846   -2.568091
H     -1.999370    1.674310    4.498902
H     -2.314895    3.051120    3.349050
H     -0.780498    2.987878    4.294209
H     -3.573248    1.014863    2.704637
H     -5.389028   -2.616752    0.267576
H     -5.696833   -1.230544   -0.885853
H     -1.949790   -1.865747   -2.631399
H     -1.675872   -3.253069   -1.477218
H     -0.378255   -2.745633   -2.619357
H     -0.472017    1.509380   -1.431142
H      1.071397    1.615011   -2.448767
H      3.294343    1.872618    0.901289
H      5.722089    1.552353    0.608912
H      6.579460    0.063350   -1.175633
H      5.005654   -1.120323   -2.668142
H      2.680172   -1.601581   -3.300910
