31

C      3.689117   -0.140620   -0.389215
C      2.509294   -1.112957   -0.513862
C      2.300935   -1.908760    0.781190
C      1.241148   -0.404155   -0.943130
C      0.684010    0.534192   -0.141962
C     -0.647853    1.215532   -0.345832
C     -1.858589    0.310751    0.008588
C     -1.826185   -0.076428    1.504842
C     -3.150785    1.046766   -0.317562
C     -3.518256    2.185401    0.284066
O     -1.795730   -0.859701   -0.772019
O      0.700856   -0.797134   -2.177266
O     -0.118777   -0.026358   -2.902712
H      3.815252    0.428922   -1.334813
H      4.626280   -0.705377   -0.197018
H      3.534605    0.576080    0.444721
H      2.775403   -1.846716   -1.307083
H      2.108875   -1.233728    1.641872
H      3.205535   -2.513876    1.003966
H      1.438985   -2.600871    0.668652
H      1.197410    0.800899    0.773730
H     -0.662151    2.105243    0.320883
H     -0.734670    1.632113   -1.368599
H     -2.749639   -0.628640    1.782919
H     -1.746607    0.822944    2.151644
H     -0.956703   -0.735362    1.714948
H     -3.811269    0.634254   -1.075535
H     -4.451627    2.665556    0.008856
H     -2.902306    2.647185    1.048283
H     -2.562007   -1.441079   -0.521760
H     -0.334553   -0.574075   -3.698784
