28

C      2.689651    0.595213   -1.669647
C      1.672026    0.060546   -0.700510
C      0.849018   -0.934589   -1.072516
C     -0.177682   -1.467049   -0.108626
C     -0.874614   -0.340110    0.708043
C     -0.000637    0.937195    0.906789
C      1.497644    0.684938    0.670540
O      1.989703   -0.177505    1.671025
O      3.306822   -0.076868    1.643336
C     -2.232946    0.014754    0.114852
C     -2.336481    0.478961   -1.141964
C     -3.488937   -0.158027    0.929167
H      3.283128    1.416388   -1.216443
H      2.178081    0.985930   -2.574569
H      3.386579   -0.216945   -1.965890
H      0.909869   -1.357041   -2.071731
H     -0.918983   -2.090438   -0.654662
H      0.350451   -2.146271    0.595872
H     -1.040287   -0.764810    1.722939
H     -0.150278    1.334090    1.934978
H     -0.318848    1.744146    0.209793
H      2.013766    1.672636    0.723485
H      3.619859   -0.941012    1.271056
H     -3.305309    0.728304   -1.564674
H     -1.457209    0.617800   -1.762771
H     -4.166046   -0.879898    0.425322
H     -3.269987   -0.538930    1.948086
H     -4.008352    0.818594    1.028722
