36

C     -2.421112   -1.509493    0.587842
C     -2.012997   -2.568847   -0.467743
N     -1.304936   -1.985043   -1.617417
C      0.130737   -1.780568   -1.354851
C      0.390167   -0.891960   -0.110227
C     -0.636644    0.234842   -0.015034
C     -0.302531    1.576830   -0.289137
C     -1.264847    2.590099   -0.248098
C     -2.602311    2.268429    0.064453
C     -2.947178    0.939976    0.321947
C     -1.988522   -0.084818    0.275262
O     -3.614256    3.228700    0.130089
O     -0.848691    3.894231   -0.525331
C      1.845579   -0.444319    0.012893
C      2.490965   -0.531385    1.262571
C      3.818171   -0.118406    1.410365
C      4.517115    0.397880    0.318377
C      3.887633    0.510138   -0.922149
C      2.560778    0.097880   -1.077226
H     -1.995347   -1.793236    1.574350
H     -3.525029   -1.556292    0.717161
H     -1.401729   -3.369285    0.007758
H     -2.938437   -3.065864   -0.835848
H     -1.381593   -2.656775   -2.417073
H      0.640230   -2.761938   -1.222310
H      0.560914   -1.313135   -2.261976
H      0.212717   -1.554876    0.764230
H      0.708791    1.861205   -0.535559
H     -3.978310    0.708707    0.560826
H     -3.469884    4.214714   -0.032488
H     -1.463012    4.695526   -0.528764
H      1.967434   -0.920435    2.127081
H      4.304046   -0.196042    2.374446
H      5.543823    0.719711    0.435701
H      4.425625    0.926616   -1.764000
H      2.092642    0.237234   -2.041084
