39

C      0.424101   -0.497057    1.044789
C     -1.010750   -1.087661    1.078416
C     -1.136984   -2.345322    0.185749
C     -0.540476   -2.112267   -1.228415
O      0.387777   -1.040946   -1.316952
C      1.225738   -0.987485   -0.179569
C      2.394956   -0.065235   -0.442880
C      3.663987   -0.371099    0.079408
C      4.742022    0.494904   -0.126759
C      4.562764    1.683606   -0.845969
C      3.300076    2.002732   -1.353963
C      2.220025    1.138927   -1.149764
O      5.629693    2.553852   -1.057630
O     -0.466243   -3.422917    0.790829
C     -2.102521   -0.074348    0.750151
C     -3.313527   -0.116272    1.467091
C     -4.352585    0.768539    1.165319
C     -4.204133    1.702143    0.133171
C     -3.013678    1.743119   -0.596423
C     -1.972653    0.859302   -0.297917
O     -5.232431    2.589395   -0.176465
H      0.386109    0.614421    1.077085
H      0.972570   -0.812656    1.960136
H     -1.182227   -1.413013    2.130133
H     -2.213957   -2.616411    0.069281
H     -1.375930   -1.883102   -1.923797
H     -0.065224   -3.043208   -1.608676
H      1.634387   -2.004897    0.032231
H      3.819476   -1.279495    0.648207
H      5.714662    0.243265    0.276512
H      3.154447    2.923646   -1.904221
H      1.249053    1.411809   -1.541799
H      6.556560    2.351574   -0.701408
H     -1.050979   -3.755367    1.521403
H     -3.456852   -0.838874    2.260978
H     -5.274217    0.724066    1.731556
H     -2.895371    2.459996   -1.399092
H     -1.069663    0.918434   -0.884421
H     -6.108002    2.583902    0.333676
