42

C      4.699275   -0.287812    1.021152
C      3.429891    0.524532    1.027664
C      2.283880   -0.023023    0.586417
C      0.999709    0.738171    0.583646
C     -0.155006    0.179285    0.126928
C     -0.169639   -1.124549   -0.580870
C     -0.944841   -2.184741   -0.085898
C     -0.988752   -3.404447   -0.767568
C     -0.268153   -3.574664   -1.957956
C      0.493273   -2.511789   -2.463505
C      0.537539   -1.291531   -1.783201
N     -0.313784   -4.822566   -2.654720
C     -1.470937    0.840634    0.306441
C     -2.265350    1.140907   -0.811054
C     -3.521341    1.731879   -0.645161
C     -4.002955    2.018396    0.639826
C     -3.218733    1.703922    1.758382
C     -1.962884    1.112604    1.593875
N     -5.288021    2.622485    0.808672
C      1.031032    2.135571    1.099196
C      2.164288    2.684272    1.538581
C      3.425018    1.926040    1.531703
N      4.500484    2.505056    1.968643
H      4.543177   -1.309809    0.613743
H      5.461829    0.217014    0.391837
H      5.083720   -0.386906    2.057882
H      2.295130   -1.053897    0.256981
H     -1.509684   -2.068143    0.830995
H     -1.585446   -4.215563   -0.369602
H      1.048223   -2.627568   -3.385962
H      1.119941   -0.475419   -2.193110
H      0.218282   -4.958576   -3.543133
H     -0.879593   -5.619773   -2.287038
H     -1.908929    0.922743   -1.810408
H     -4.119716    1.964291   -1.517093
H     -3.582319    1.912709    2.756640
H     -1.374352    0.863133    2.468313
H     -5.656265    2.838170    1.761955
H     -5.880466    2.858844   -0.018380
H      0.141369    2.751321    1.097093
H      2.156411    3.707276    1.895675
H      5.434693    2.041520    1.999622
