36

C     -1.655645   -1.720380   -0.651458
C     -0.160675   -1.497511   -0.351913
C      0.255070   -0.066131   -0.745633
O     -0.570319    0.877923   -0.064131
C     -1.937256    0.663807    0.145142
C     -2.716660    1.708655    0.648321
C     -4.085656    1.532132    0.854252
C     -4.682601    0.304609    0.545468
C     -3.918240   -0.753398    0.039900
C     -2.522021   -0.592883   -0.129244
O     -4.577278   -1.939364   -0.291745
O     -4.846105    2.584821    1.358555
C      1.705752    0.192014   -0.412392
C      2.678635    0.163202   -1.423548
C      4.027834    0.372870   -1.120526
C      4.420961    0.606932    0.208606
C      3.454132    0.624490    1.228781
C      2.104538    0.413225    0.915942
O      3.837660    0.849753    2.550081
O      5.769030    0.817128    0.501923
O      4.964091    0.343062   -2.153818
O      0.624388   -2.460460   -1.011169
H     -1.949674   -2.679633   -0.174833
H     -1.815482   -1.806048   -1.748188
H     -0.008600   -1.622985    0.743345
H      0.089320    0.068064   -1.838475
H     -2.256762    2.662681    0.874040
H     -5.748173    0.173547    0.687453
H     -4.118392   -2.726180   -0.731389
H     -5.842465    2.490117    1.517302
H      2.391125   -0.024497   -2.450972
H      1.366487    0.419660    1.708824
H      3.160894    0.866806    3.304150
H      6.095951    0.988701    1.445144
H      5.953052    0.487773   -1.989488
H      0.513087   -2.322504   -1.988305
