24

C     -3.562550   -1.075155   -0.328730
O     -2.829799    0.098505    0.005475
C     -1.428220    0.248447    0.017981
C     -0.943233    1.513370    0.385239
C      0.445009    1.761558    0.427449
C      1.342010    0.741520    0.101559
C      0.873787   -0.541501   -0.271505
C     -0.522570   -0.792447   -0.314350
O     -1.030227   -2.043828   -0.677027
C      1.843517   -1.515157   -0.585194
C      3.198053   -1.197266   -0.521345
C      3.572802    0.090165   -0.144803
O      4.791554    0.398413   -0.080701
O      2.648707    0.996513    0.147695
O      0.974703    3.004611    0.787135
O     -1.883517    2.498833    0.701789
H     -4.646434   -0.857561   -0.238605
H     -3.316231   -1.896930    0.375985
H     -3.356744   -1.372026   -1.378550
H     -0.475723   -2.847417   -0.930278
H      1.590679   -2.520156   -0.880041
H      3.945683   -1.943413   -0.761837
H      0.420887    3.809423    1.040688
H     -1.652142    3.441498    0.978497
