43

C      3.705272   -1.073397   -2.542709
C      2.529045   -2.012016   -2.293958
O      1.745090   -1.551375   -1.196103
C      0.873955   -0.457056   -1.274981
O      0.673501    0.113459   -2.384134
C      0.176759    0.021748   -0.004506
C      1.286580    0.456315    0.994616
C      2.138863    1.615694    0.449294
C      1.320943    2.694145   -0.215752
C      0.050053    2.512309   -0.611267
C     -0.751030    1.261988   -0.271491
N     -1.707657    1.461912    0.866604
C     -3.107738    1.479258    0.408101
C     -1.456879    2.633375    1.730864
C     -0.675759   -1.155470    0.509835
C     -1.621297   -1.748626   -0.357051
C     -2.434088   -2.800044    0.073978
C     -2.324384   -3.279680    1.378058
C     -1.401550   -2.709091    2.253970
C     -0.584343   -1.656453    1.830741
H      4.321004   -0.985520   -1.621710
H      4.336959   -1.477465   -3.361677
H      3.342245   -0.064912   -2.835647
H      2.923058   -3.020753   -2.047411
H      1.902270   -2.099423   -3.208823
H      1.960547   -0.397965    1.225171
H      0.836581    0.781865    1.954187
H      2.717977    2.064967    1.283811
H      2.868801    1.224256   -0.291175
H      1.816657    3.626633   -0.468625
H     -0.460255    3.327100   -1.116787
H     -1.324362    1.034907   -1.200143
H     -3.800438    1.541635    1.275296
H     -3.349378    0.538935   -0.131001
H     -3.290165    2.343431   -0.268572
H     -2.100328    2.579675    2.635164
H     -0.409391    2.650226    2.088271
H     -1.673886    3.583498    1.194866
H     -1.734671   -1.391389   -1.372643
H     -3.154678   -3.238529   -0.605587
H     -2.955151   -4.093296    1.711643
H     -1.319414   -3.082849    3.266934
H      0.110680   -1.252017    2.550351
