46

C      5.128259   -0.309571    0.905264
N      4.436763    0.849405    0.312556
C      4.226181    1.872510    1.350029
C      3.139943    0.451382   -0.277669
C      3.341154   -0.178810   -1.664257
C      2.023276   -0.361915   -2.426603
O      1.210213   -1.361941   -1.814672
C      0.239107   -1.077510   -0.850467
N     -0.105381    0.165189   -0.435395
N     -1.052003    0.034220    0.489065
C     -1.323647   -1.278147    0.650645
C     -2.253632   -1.892661    1.492333
C     -2.335002   -3.298257    1.459747
C     -1.498607   -4.046954    0.599203
C     -0.572594   -3.397752   -0.238753
C     -0.519832   -2.008195   -0.180314
C     -1.720283    1.167458    1.124267
C     -2.951716    1.539767    0.345484
C     -2.829514    2.210026   -0.883060
C     -3.969130    2.530836   -1.627046
C     -5.236346    2.180629   -1.153172
C     -5.365760    1.507767    0.064910
C     -4.228619    1.184995    0.812115
H      4.514178   -0.785605    1.702225
H      6.099896    0.006328    1.342924
H      5.363076   -1.064122    0.127176
H      3.785628    2.788171    0.900112
H      3.550123    1.499605    2.152094
H      5.196817    2.171055    1.802078
H      2.492463    1.347959   -0.411238
H      2.598636   -0.254378    0.391855
H      3.834079   -1.169045   -1.569141
H      4.004717    0.480276   -2.265531
H      2.266066   -0.701602   -3.455586
H      1.475680    0.601596   -2.520535
H     -2.890231   -1.319553    2.151746
H     -3.043044   -3.809490    2.098857
H     -1.571627   -5.126557    0.583923
H      0.071219   -3.958484   -0.903949
H     -1.026623    2.035778    1.156388
H     -1.970918    0.920714    2.178582
H     -1.852525    2.480859   -1.264175
H     -3.869598    3.048666   -2.572248
H     -6.117542    2.428768   -1.730545
H     -6.347545    1.234686    0.429605
H     -4.345754    0.661904    1.752545
