37

C     -3.873448   -2.257754    0.285663
C     -3.630183   -1.512795   -1.035453
N     -2.911300   -0.228734   -0.870665
C     -3.623214    0.711427    0.022425
C     -3.217884    2.154231   -0.268641
C     -1.481240   -0.407167   -0.521930
C     -0.610903    0.171683   -1.638248
N      0.806440    0.007451   -1.320903
C      1.469227    0.811093   -0.330598
O      0.874817    1.810570    0.159273
C      2.848940    0.496774    0.112445
C      3.369749   -0.805279   -0.001353
C      4.669993   -1.088770    0.427492
C      5.468749   -0.083020    0.981021
C      4.952193    1.216055    1.108432
C      3.651983    1.501734    0.681340
N      6.795782   -0.402919    1.411104
O      7.550802    0.455158    1.913437
H     -4.592020   -1.702169    0.923332
H     -4.310528   -3.254899    0.068040
H     -2.928249   -2.406592    0.846363
H     -4.609660   -1.324774   -1.526537
H     -3.060674   -2.173101   -1.726208
H     -3.426467    0.475660    1.092146
H     -4.721589    0.640568   -0.142973
H     -3.853921    2.845923    0.323005
H     -3.353301    2.378667   -1.347933
H     -2.158974    2.328635    0.013843
H     -1.209515   -1.480130   -0.405581
H     -1.226091    0.085693    0.442333
H     -0.837997   -0.365844   -2.584815
H     -0.839225    1.247084   -1.797542
H      1.362427   -0.655538   -1.905581
H      2.770184   -1.613544   -0.398109
H      5.054795   -2.096750    0.334295
H      5.552151    2.008618    1.537121
H      3.278152    2.512754    0.786732
