14

C     -1.059450   -0.502726    0.466906
C     -0.210511    0.163550   -0.624778
C      1.077726    0.700747   -0.045502
O      1.115783    1.875348    0.411020
C      2.281831   -0.141059    0.052052
O      2.265166   -1.335741   -0.346072
O      3.450444    0.381039    0.592605
O     -0.929514    1.183083   -1.275985
O     -2.235309   -1.014955   -0.095983
H     -0.479663   -1.332234    0.931310
H     -1.313162    0.239843    1.257188
H      0.033351   -0.605942   -1.388973
H     -1.256055    1.817725   -0.585103
H     -2.740637   -1.428676    0.651315
