42

C      2.594128   -0.082691   -0.484160
C      4.003754   -0.672078   -0.285517
N      4.615706   -0.159224    0.941838
C      3.922182    0.090020    2.014190
C      2.447742   -0.028722    1.979746
C      1.799839   -0.134108    0.807502
C      0.317006   -0.196665    0.810518
C     -0.431541    0.084934   -0.266047
N     -1.873397    0.016004   -0.241805
C     -2.697987   -0.494010    0.869462
C     -4.186618   -0.244717    0.485856
C     -4.115467    0.336583   -0.880742
C     -5.141036    0.700629   -1.658210
C     -4.848009    1.273880   -2.987465
O     -5.785139    1.626953   -3.751233
C     -3.433916    1.424702   -3.398825
O     -3.136662    1.910104   -4.522446
C     -2.371628    0.994984   -2.464432
C     -2.732546    0.481566   -1.276788
C     -2.440827   -1.958795    1.091239
O     -2.397030   -2.752573    0.112745
O     -2.284611   -2.443917    2.385685
C      4.609058    0.531358    3.238930
O      5.864643    0.643106    3.254188
O      3.878411    0.828423    4.385856
C      4.884324   -0.363428   -1.461748
O      5.165545   -1.270378   -2.288743
O      5.372337    0.924262   -1.670173
H      2.659493    0.977913   -0.811867
H      2.082755   -0.670243   -1.276864
H      3.906039   -1.776589   -0.184110
H      1.891476    0.004742    2.909470
H     -0.168133   -0.450151    1.743742
H      0.056824    0.398710   -1.175533
H     -2.463487    0.074035    1.796499
H     -4.649999    0.488830    1.180364
H     -4.792325   -1.177853    0.472448
H     -6.162620    0.579518   -1.320251
H     -1.335685    1.100620   -2.751738
H     -2.119610   -3.428946    2.554738
H      4.342232    1.133254    5.233342
H      5.154780    1.679956   -1.031496
