17

C     -0.535036    0.320944    0.540680
C     -1.876139   -0.425000    0.514919
O     -2.602598   -0.113138   -0.643388
C      0.381569   -0.066439   -0.635486
C      1.622122    0.787500   -0.631751
O      1.879490    1.530004   -1.616962
O      2.488225    0.758323    0.457871
N      0.735661   -1.486489   -0.567938
H     -0.023540    0.099905    1.503350
H     -0.735745    1.414826    0.510480
H     -2.467038   -0.157282    1.420109
H     -1.701788   -1.521167    0.547176
H     -2.960004    0.804332   -0.516103
H     -0.168453    0.114707   -1.586258
H      3.325656    1.328062    0.471359
H      1.320605   -1.726028   -1.401755
H      1.317013   -1.663062    0.284185
