31

C      3.936110    0.405287   -2.272088
C      3.668600   -0.919540   -1.529712
C      2.701960   -0.540264   -0.457340
O      2.131281   -1.376810    0.291132
N      2.431504    0.852236   -0.420371
C      3.105654    1.401481   -1.533932
O      2.994412    2.609573   -1.871088
O      1.345520    1.454612    0.185691
C      0.940585    1.146914    1.487316
O      1.705060    0.518755    2.268555
C     -0.418183    1.561178    1.949873
C     -1.434373    0.540413    1.518572
C     -2.020170    0.619826    0.245939
C     -2.949158   -0.344383   -0.181083
C     -3.255034   -1.431998    0.671813
C     -2.670992   -1.502363    1.941341
C     -1.763282   -0.529255    2.361577
O     -4.100719   -2.471349    0.280186
N     -3.574745   -0.193205   -1.465032
O     -4.802271   -0.379439   -1.592580
O     -2.881571    0.389624   -2.500937
H      3.606902    0.341028   -3.331390
H      5.010150    0.683992   -2.215877
H      4.601886   -1.320009   -1.079209
H      3.213290   -1.670806   -2.210167
H     -0.424766    1.673136    3.056365
H     -0.666092    2.555567    1.519582
H     -1.767064    1.447444   -0.405749
H     -2.904299   -2.331621    2.597287
H     -1.308297   -0.615854    3.340631
H     -4.451899   -2.574170   -0.662367
