23

C      1.461484    0.961563   -0.296020
C      2.817122    0.726090   -0.082624
C      3.289298   -0.580714   -0.168960
O      4.511090   -0.825262    0.019047
N      2.428004   -1.592271   -0.454843
C      1.103296   -1.351269   -0.661538
O      0.334945   -2.318865   -0.918025
N      0.614420   -0.070093   -0.590076
C     -0.817013    0.219224   -0.786636
C     -1.551037    0.299541    0.563260
C     -2.985670    0.722616    0.358004
O     -3.789417   -0.037591   -0.244804
O     -3.433243    1.960304    0.812437
N     -1.481029   -0.984348    1.265261
F      3.655109    1.753420    0.206321
H      1.088106    1.976560   -0.223061
H      2.788536   -2.572249   -0.514884
H     -1.292342   -0.547817   -1.437407
H     -0.930074    1.187814   -1.324489
H     -1.039683    1.064390    1.188155
H     -2.814258    2.603207    1.291374
H     -2.005968   -1.710285    0.724416
H     -1.951678   -0.883968    2.194283
