42

C     -5.225575   -0.067991    0.698981
C     -4.623978    0.866532   -0.354509
C     -4.759900    2.320389   -0.014562
C     -3.266461    2.269649    0.012343
N     -3.149417    0.836507   -0.318432
C     -2.112117   -0.119679   -0.537169
N     -2.415532   -1.407982   -0.875709
C     -1.434103   -2.345769   -1.080998
N     -0.115527   -2.004615   -0.950264
C      0.181218   -0.723959   -0.621557
C     -0.769532    0.214194   -0.410724
N     -0.207451    1.386872   -0.063152
C      1.123116    1.098576   -0.080615
N      1.393001   -0.187900   -0.432407
C      2.689380   -0.873506   -0.460390
C      3.202699   -1.156010    0.961617
C      4.523203   -0.374099    1.104894
C      4.720714    0.260080   -0.230944
C      3.738024   -0.010409   -1.071743
C      4.454072    0.685203    2.216824
O      5.667459    1.381728    2.314379
N     -1.790562   -3.681224   -1.429120
H     -4.787461    0.131662    1.700724
H     -5.019713   -1.123410    0.423182
H     -6.325308    0.077994    0.746653
H     -5.000527    0.632168   -1.375908
H     -5.157286    2.928549   -0.855995
H     -5.203788    2.530963    0.983616
H     -2.802393    2.899297   -0.779094
H     -2.849540    2.478609    1.022637
H      1.885530    1.822681    0.174936
H      2.615298   -1.817980   -1.043463
H      2.453518   -0.862855    1.731049
H      3.397321   -2.244798    1.078961
H      5.361992   -1.076560    1.305732
H      5.577786    0.871298   -0.495343
H      3.704488    0.359870   -2.091250
H      3.642929    1.413115    1.999525
H      4.217334    0.197193    3.189864
H      6.312669    0.768215    2.753754
H     -2.794221   -3.950897   -1.529716
H     -1.051361   -4.401697   -1.586232
