16

C     -0.145989   -1.309874   -0.105487
C     -1.207898   -0.348281    0.434132
C     -1.084706    1.019232   -0.245124
N      0.287034    1.523944   -0.188165
C      1.420929    0.646302   -0.164951
O      2.571944    1.108466   -0.384834
C      1.263223   -0.799546    0.209081
H     -0.284495   -2.310310    0.358219
H     -0.267055   -1.423005   -1.205622
H     -1.087598   -0.233096    1.533853
H     -2.219130   -0.765594    0.238572
H     -1.763739    1.740142    0.258387
H     -1.395128    0.936130   -1.309081
H      0.444927    2.538119   -0.383662
H      2.006397   -1.414950   -0.342518
H      1.461284   -0.907679    1.297201
