17

C      0.207021    0.831516   -0.702721
C     -0.907928    0.928125    0.376232
C     -2.032044   -0.120993    0.260352
F     -3.091807    0.258507    1.065062
F     -1.602756   -1.363431    0.685033
F     -2.487240   -0.216382   -1.042534
F     -0.353986    0.867695    1.642734
F     -1.491983    2.178727    0.249985
C      1.016187   -0.493297   -0.784626
C      1.783003   -0.879299    0.496276
F      2.687219   -1.883562    0.198745
F      0.925413   -1.357160    1.468122
F      2.483828    0.202677    0.998256
F      1.949661   -0.340433   -1.797702
F      0.187191   -1.537640   -1.154281
F     -0.367187    1.052118   -1.944705
F      1.095408    1.872832   -0.485155
