27

C     -1.075087   -0.045894   -1.018441
C     -1.713758   -1.154368   -0.152163
C     -2.314398   -0.595634    1.112007
O     -1.809768   -0.893964    2.226560
O     -3.413890    0.258979    1.072967
N     -2.737857   -1.884952   -0.902159
C      0.118660    0.594163   -0.329216
C      1.291632   -0.073205   -0.345372
C      2.564099    0.418025    0.309919
C      3.624064   -0.652344    0.281807
O      4.402278   -0.751897   -0.703866
O      3.717164   -1.578743    1.316815
O      3.030703    1.594519   -0.304504
C     -0.023651    1.897915    0.378091
C     -1.144115    2.569357    0.387716
O     -2.204985    3.206344    0.396928
H     -0.739333   -0.488909   -1.982406
H     -1.837063    0.714467   -1.291397
H     -0.918414   -1.881336    0.130593
H     -3.836871    0.541984    0.197834
H     -3.396830   -1.208935   -1.352755
H     -2.270177   -2.415102   -1.673331
H      1.333685   -1.027068   -0.862010
H      2.350577    0.644751    1.376236
H      3.086537   -1.547069    2.108939
H      3.104209    1.420356   -1.280033
H      0.812589    2.338558    0.901243
