33

C     -4.675625   -0.097866   -0.840722
C     -3.393203   -0.147267   -0.007208
C     -2.261200   -0.746508   -0.809128
C     -0.983782   -0.769335   -0.389770
C     -0.534465   -0.193013    0.937037
C      0.987673   -0.297790    1.183884
C      1.831101    0.526255    0.186905
C      3.084892   -0.323236   -0.105248
C      2.698936   -1.778108    0.146083
C      1.512159   -1.683936    1.028645
O      1.027958   -2.652130    1.594400
C      2.171400    1.924702    0.737007
C      2.886119    2.752679   -0.286208
O      4.142246    2.837823   -0.268844
O      2.166417    3.396443   -1.284786
O     -3.609956   -0.924257    1.141114
H     -4.514956    0.509683   -1.757137
H     -5.492046    0.369134   -0.249961
H     -4.989008   -1.123238   -1.133160
H     -3.121534    0.896562    0.273921
H     -2.478016   -1.172715   -1.785684
H     -0.247443   -1.221662   -1.048182
H     -1.058863   -0.727533    1.757813
H     -0.825115    0.877961    0.989827
H      1.198654    0.023298    2.228623
H      1.274877    0.649290   -0.769698
H      3.432611   -0.178932   -1.151337
H      3.912195   -0.047786    0.586481
H      2.419097   -2.284248   -0.802741
H      3.524623   -2.327297    0.647912
H      1.231959    2.448463    1.016308
H      2.793974    1.839812    1.654927
H     -4.111680   -0.355247    1.781765
