33

C      2.690850    1.084343    0.017511
C      4.036180    1.221370    0.373294
C      4.717704    0.154424    0.974260
C      4.045327   -1.046522    1.222077
C      2.700167   -1.185834    0.867167
C      2.018545   -0.127079    0.241517
C      0.584404   -0.239678   -0.097351
C      0.084257   -1.266681   -0.820885
C     -1.406232   -1.442306   -1.016220
C     -2.225528   -0.221983   -0.654831
C     -3.607219   -0.141986   -0.957328
C     -4.339644    0.985326   -0.566980
C     -3.722447    2.028470    0.132638
C     -2.363574    1.946972    0.440295
C     -1.617226    0.832636    0.047659
O     -0.257770    0.782460    0.352565
O     -4.450819    3.148753    0.526523
O     -4.280910   -1.160662   -1.635127
O     -1.843487   -2.524744   -0.237224
O      0.914457   -2.219174   -1.420504
O      6.058144    0.279043    1.332212
H      2.176047    1.919919   -0.441093
H      4.546465    2.157356    0.184895
H      4.563736   -1.870081    1.696447
H      2.188429   -2.114937    1.086502
H     -1.570814   -1.654547   -2.097868
H     -5.394887    1.045216   -0.802848
H     -1.883768    2.753663    0.980347
H     -5.438611    3.238260    0.318790
H     -3.834075   -2.015115   -1.940508
H     -1.581577   -3.352848   -0.718880
H      1.921276   -2.130416   -1.470529
H      6.572598    1.136383    1.167322
