42

C     -5.609287   -0.469038    1.223254
C     -5.383457   -0.931330   -0.221725
C     -4.827416    0.197063   -1.114259
C     -3.464955    0.768219   -0.678077
C     -2.338340   -0.275270   -0.707431
C     -0.974661    0.381486   -0.461305
C      0.149137   -0.661785   -0.470403
C      1.513033   -0.004764   -0.226575
C      2.635659   -1.053095   -0.224499
C      4.033010   -0.422929   -0.115059
C      4.306339    0.173328    1.276926
C      5.763566    0.626579    1.436507
C      6.079140    1.798745    0.558940
O      5.726608    2.958436    0.903569
O      6.732267    1.601693   -0.653655
O     -6.604419   -1.362214   -0.765308
H     -4.641025   -0.269858    1.727296
H     -6.234892    0.448685    1.246624
H     -6.127563   -1.265828    1.797749
H     -4.665692   -1.782827   -0.222272
H     -5.563166    1.030780   -1.141226
H     -4.735218   -0.184777   -2.154833
H     -3.540365    1.219118    0.333931
H     -3.208589    1.591793   -1.380222
H     -2.514833   -1.035358    0.083303
H     -2.328366   -0.783171   -1.696910
H     -0.988788    0.898983    0.523432
H     -0.780644    1.136591   -1.254843
H     -0.042379   -1.416210    0.324471
H      0.160590   -1.180297   -1.454561
H      1.488631    0.518806    0.752853
H      1.707221    0.744192   -1.025678
H      2.592864   -1.626516   -1.176538
H      2.480393   -1.773122    0.608808
H      4.150334    0.359298   -0.896246
H      4.783597   -1.217707   -0.319096
H      3.634188    1.037735    1.465316
H      4.096925   -0.597010    2.050849
H      5.937560    0.914929    2.495776
H      6.452528   -0.213930    1.203203
H      6.939683    2.382505   -1.264723
H     -6.789216   -2.261927   -0.387362
