18

C      2.560798   -0.377167   -0.009318
C      1.343865    0.466010    0.363693
C      0.111211    0.077211   -0.465043
C     -1.115694    0.968400   -0.150554
C     -2.294773    0.015612    0.082896
C     -1.638679   -1.304735    0.122740
O     -2.235281   -2.381237    0.385661
O     -0.294544   -1.247361   -0.164394
H      2.366397   -1.451392    0.195187
H      2.806148   -0.246438   -1.084813
H      3.434639   -0.055073    0.595315
H      1.584420    1.536584    0.184485
H      1.127325    0.332379    1.446243
H      0.344583    0.145522   -1.550932
H     -1.328863    1.655405   -0.998363
H     -0.951151    1.579648    0.764695
H     -3.013891    0.056279   -0.763100
H     -2.806509    0.230353    1.045602
