48

C      7.047943   -0.312434   -1.481718
C      6.323502    0.184271   -0.235781
C      5.042592   -0.624606    0.017732
C      4.376310   -0.280806    1.362280
C      3.853576    1.163489    1.476819
C      2.733258    1.530742    0.484432
C      1.411021    0.773034    0.733137
C      1.186552   -0.361797   -0.280122
C     -0.103252   -1.143830    0.004489
C     -1.333933   -0.307535   -0.243100
O     -1.600920    0.044797   -1.383304
C     -2.247453    0.084544    0.886544
C     -3.548332   -0.651731    0.776998
O     -3.586226   -1.879019    1.068503
N     -4.728415    0.025087    0.326485
C     -6.021409   -0.646916    0.176089
C     -6.630514   -0.368595   -1.211020
C     -7.848058    0.547906   -0.980500
O     -8.031674    0.606357    0.423464
C     -7.016220   -0.043515    1.088463
O     -6.957603   -0.113622    2.343966
H      6.395862   -0.205532   -2.373947
H      7.970688    0.285699   -1.639760
H      7.334931   -1.378811   -1.364297
H      6.073339    1.255135   -0.384812
H      7.007980    0.096002    0.635930
H      5.300701   -1.706482    0.039620
H      4.331273   -0.478050   -0.822248
H      3.543039   -0.990352    1.547699
H      5.114594   -0.449510    2.176807
H      3.477395    1.318377    2.511304
H      4.696425    1.874815    1.349733
H      3.080786    1.415277   -0.564275
H      2.532292    2.617393    0.614287
H      0.573256    1.495680    0.637665
H      1.374585    0.371079    1.768434
H      2.034547   -1.075397   -0.238199
H      1.151389    0.055688   -1.310514
H     -0.085925   -1.523743    1.050357
H     -0.140949   -2.032892   -0.663370
H     -2.414425    1.182543    0.859763
H     -1.781861   -0.151478    1.868035
H     -4.674539    1.052022    0.123720
H     -5.947273   -1.742936    0.359107
H     -6.963878   -1.325194   -1.668387
H     -5.902043    0.110909   -1.900416
H     -8.757588    0.135633   -1.464430
H     -7.645348    1.568304   -1.369739
