16

C      2.915711   -0.735262   -0.310119
C      1.848232   -0.177634   -0.365500
C      0.544874    0.503763   -0.433498
C     -0.340084    0.117775    0.775963
C     -1.603307    0.940429    0.801333
O     -1.707163    1.893715    1.617825
O     -2.652041    0.691009   -0.081841
N     -0.671190   -1.311964    0.803749
O     -0.093561    0.177500   -1.640852
H      3.852518   -1.225016   -0.261290
H      0.734088    1.601801   -0.390763
H      0.228515    0.355103    1.705146
H     -2.609898   -0.052021   -0.767672
H      0.190364   -1.854643    1.042359
H     -0.985775   -1.632495   -0.140087
H      0.348717    0.707940   -2.354752
