33

C      2.054864   -1.208888   -0.619930
C      1.598244    0.047375   -0.196189
C      2.531776    1.002972    0.233705
C      3.903002    0.719368    0.206658
C      4.359094   -0.529004   -0.239777
C      3.422314   -1.505961   -0.653118
O      3.801407   -2.774051   -1.098684
O      5.737383   -0.757547   -0.253415
O      4.824428    1.676868    0.628591
C      0.142843    0.317467   -0.154148
O     -0.664871   -0.649995    0.271909
C     -1.984066   -0.514155    0.358548
C     -2.749240   -1.587828    0.821343
C     -4.138519   -1.470941    0.925225
C     -4.764421   -0.275363    0.565791
C     -4.020127    0.815385    0.099453
C     -2.609875    0.700981   -0.010445
C     -1.785438    1.736595   -0.479861
C     -0.402711    1.547999   -0.564803
O      0.411158    2.558303   -1.077598
O     -4.721606    1.976892   -0.236364
O     -4.907727   -2.537409    1.385495
H      1.345018   -1.962803   -0.939696
H      2.199300    1.960217    0.614523
H      4.758287   -3.091216   -1.155269
H      6.165336   -1.618582   -0.561433
H      4.529809    2.588898    0.957779
H     -2.261983   -2.513905    1.100791
H     -5.840967   -0.191708    0.650139
H     -2.185811    2.686279   -0.797575
H      0.029444    3.445325   -1.384568
H     -4.291206    2.826715   -0.570570
H     -4.485139   -3.418285    1.654580
