32

C      1.987225    1.377007    0.932208
C      3.313873    1.640847    1.277184
C      4.356669    0.877897    0.740731
C      4.056305   -0.177602   -0.152497
C      2.722271   -0.432529   -0.495463
C      1.679503    0.350726    0.028336
C      0.263680    0.075794   -0.307113
O     -0.637854    0.137156    0.669309
C     -1.932386   -0.099233    0.483416
C     -2.802656   -0.013251    1.573228
C     -4.168606   -0.259977    1.406312
C     -4.665531   -0.594882    0.144863
C     -3.814201   -0.687854   -0.963183
C     -2.427243   -0.435704   -0.799643
C     -1.502391   -0.492630   -1.855075
C     -0.150491   -0.226697   -1.617624
O      0.760214   -0.234098   -2.674314
O     -4.389563   -1.031355   -2.189932
O     -5.042134   -0.175722    2.488317
O      5.040859   -0.994500   -0.712258
O      5.661802    1.197564    1.120493
H      1.199971    1.984642    1.361871
H      3.534266    2.445673    1.967218
H      2.503547   -1.264256   -1.153237
H     -2.415302    0.245430    2.551067
H     -5.724692   -0.785913    0.023407
H     -1.801507   -0.723962   -2.865104
H      0.472884   -0.441809   -3.623548
H     -3.874324   -1.139508   -3.051307
H     -4.714259    0.064621    3.416575
H      6.027846   -0.901686   -0.520309
H      6.482224    0.715810    0.782202
