25

C     -2.211505    0.850517   -1.274198
C     -1.801296   -0.317768   -0.361240
C     -0.507376   -0.003313    0.428345
C      0.749452   -0.002210   -0.461201
C      2.035296    0.343918    0.324460
C      3.169385    0.576190   -0.638908
O      3.638660   -0.377844   -1.314763
O      3.691403    1.853238   -0.802184
N      2.394221   -0.712593    1.281645
N     -2.894796   -0.630482    0.568300
H     -1.468998    1.002074   -2.083591
H     -2.311356    1.789237   -0.688541
H     -3.186296    0.631125   -1.759190
H     -1.622456   -1.211467   -1.001404
H     -0.608532    0.978391    0.941284
H     -0.383916   -0.781383    1.210431
H      0.861087   -0.995789   -0.948799
H      0.622770    0.756577   -1.262010
H      1.865128    1.291372    0.884584
H      1.708111   -0.735019    2.069136
H      3.335614   -0.515359    1.693835
H      2.417192   -1.647710    0.812899
H     -3.763495   -0.863910    0.034273
H     -2.642747   -1.462227    1.150387
H     -3.085549    0.184436    1.196451
