39

C     -1.919384   -2.603035    0.452835
C     -2.000976   -1.284745    1.252632
C     -3.349463   -0.600479    1.009773
C     -3.117623    0.452763   -0.076364
C     -1.612855    0.447820   -0.396055
C     -0.973112   -0.220873    0.824133
C      0.436831   -0.754676    0.630604
C      1.480239   -0.105495    0.045806
C      1.350843    1.205628   -0.728435
C      0.321753    2.199566   -0.181400
C     -1.055758    1.832016   -0.684120
C     -1.685357    2.646234   -1.550464
C      2.857450   -0.768613    0.105949
C      3.796691    0.001608    1.041297
C      3.473872   -0.927120   -1.290293
H     -0.985244   -3.153857    0.681998
H     -2.761929   -3.269073    0.736504
H     -1.971637   -2.417010   -0.640336
H     -1.881289   -1.521032    2.333709
H     -4.148242   -1.314459    0.710283
H     -3.677448   -0.097584    1.946710
H     -3.704822    0.207919   -0.988455
H     -3.448235    1.445418    0.303638
H     -1.440017   -0.186737   -1.294391
H     -0.930196    0.516682    1.657465
H      0.652774   -1.684589    1.146649
H      2.331057    1.725184   -0.734534
H      1.124012    0.969474   -1.791493
H      0.601707    3.221568   -0.521347
H      0.351727    2.228657    0.927664
H     -2.629252    2.361124   -2.004221
H     -1.263835    3.607161   -1.829000
H      2.771635   -1.797941    0.521678
H      3.329029    0.111904    2.043088
H      4.031649    1.010101    0.642113
H      4.749867   -0.555811    1.164017
H      2.766765   -1.462538   -1.959403
H      3.719530    0.058034   -1.739636
H      4.409243   -1.523197   -1.226011
