30

C     -6.564483   -0.797277    0.330027
C     -5.209386   -0.623034   -0.276191
C     -4.144137   -0.368370    0.485660
C     -2.809007   -0.196589   -0.110166
C     -1.744023    0.057891    0.652724
C     -0.408935    0.229048    0.056816
C      0.658128    0.483471    0.819312
C      2.027753    0.674740    0.219944
C      2.595505   -0.672420   -0.258866
C      3.892725   -0.497360   -0.997572
C      5.047891   -0.309157   -0.354716
C      6.307666   -0.153818   -1.089067
O      7.384222    0.019243   -0.460602
O      2.883893    1.228560    1.185433
H     -7.308942   -1.000488   -0.467990
H     -6.860396    0.127239    0.869534
H     -6.555913   -1.652346    1.038649
H     -5.105471   -0.707496   -1.351928
H     -4.262921   -0.286524    1.560815
H     -2.694119   -0.279143   -1.185752
H     -1.858856    0.140019    1.728318
H     -0.292238    0.149045   -1.018447
H      0.540403    0.584512    1.892742
H      1.950774    1.365963   -0.653219
H      2.736660   -1.362622    0.602422
H      1.872280   -1.150646   -0.954570
H      3.879624   -0.558624   -2.079964
H      5.067945   -0.274415    0.728185
H      6.324488   -0.185785   -2.171350
H      2.648872    2.190651    1.259821
