50

C      6.383266    0.332090    2.158581
C      6.673400    0.714659    0.707653
C      6.073463   -0.273094   -0.309517
C      4.540396   -0.409262   -0.260679
C      3.811023    0.880115   -0.670747
C      2.280414    0.751109   -0.584717
C      1.670444   -0.169175   -1.661795
C      1.523155   -1.593507   -1.183424
C      0.542492   -2.027068   -0.369411
C     -0.602239   -1.176641    0.120736
C     -1.782699   -1.248305   -0.853731
C     -2.949563   -0.379832   -0.368924
C     -4.135788   -0.459421   -1.341494
C     -5.278313    0.494422   -0.958607
C     -6.036135    0.034849    0.299226
C     -7.275469    0.896527    0.574231
C     -6.901421    2.286929    0.988137
O     -6.958689    3.233100    0.159191
O     -6.454630    2.530438    2.280816
H      6.982062    0.976058    2.836592
H      6.656467   -0.728256    2.344524
H      5.310690    0.488183    2.397174
H      6.316767    1.747418    0.513368
H      7.775983    0.724337    0.566337
H      6.375715    0.042716   -1.331858
H      6.521102   -1.276197   -0.136517
H      4.211880   -0.734343    0.748852
H      4.265921   -1.215706   -0.970713
H      4.106930    1.701752    0.013971
H      4.109300    1.175002   -1.700606
H      1.991348    0.426000    0.438526
H      1.853559    1.768070   -0.726648
H      2.303779   -0.159440   -2.574817
H      0.678569    0.222498   -1.971213
H      2.244210   -2.322662   -1.540163
H      0.533436   -3.078852   -0.097891
H     -0.289620   -0.122633    0.269195
H     -0.924337   -1.566644    1.110315
H     -2.121236   -2.304618   -0.941639
H     -1.458554   -0.900312   -1.858667
H     -3.264940   -0.731804    0.636361
H     -2.609941    0.676101   -0.285838
H     -4.516035   -1.503469   -1.391485
H     -3.784008   -0.180619   -2.359194
H     -4.873506    1.519078   -0.809569
H     -5.991005    0.535019   -1.811428
H     -6.369566   -1.016567    0.158873
H     -5.367734    0.064842    1.186314
H     -7.929071    0.926379   -0.325187
H     -7.861271    0.430735    1.395608
