44

C     -4.525080    1.617038    1.751908
C     -4.544071    0.458227    0.760479
C     -4.386613    0.960343   -0.652523
C     -3.205734    1.152402   -1.270013
C     -1.860885    0.808273   -0.675854
C     -1.511631   -0.686518   -0.868628
C     -0.266099   -1.199356   -0.092131
C      0.282893   -2.337815   -0.981729
C     -0.045058   -1.960588   -2.422151
C     -1.198750   -1.042241   -2.285116
O     -1.859838   -0.667745   -3.241431
C      0.822530   -0.118890    0.168291
C      1.953190   -0.618853    1.089263
C      2.859744    0.519067    1.593656
C      3.570130    1.322516    0.484907
C      4.472292    0.482561   -0.432686
C      5.581673   -0.178139    0.326110
O      5.515621   -1.403526    0.607946
O      6.673922    0.567773    0.750539
H     -5.353233    2.324272    1.531748
H     -3.559217    2.161929    1.700916
H     -4.657121    1.225897    2.782654
H     -5.522692   -0.061133    0.842867
H     -3.758890   -0.278898    1.025510
H     -5.291484    1.234920   -1.187133
H     -3.217552    1.576414   -2.270005
H     -1.090616    1.438046   -1.172072
H     -1.859278    1.067510    0.402722
H     -2.384565   -1.304004   -0.562549
H     -0.597335   -1.611295    0.887431
H      1.368589   -2.525864   -0.866664
H     -0.251189   -3.279974   -0.725270
H      0.805770   -1.425461   -2.896096
H     -0.317718   -2.859317   -3.016260
H      0.366421    0.755472    0.674622
H      1.244056    0.223081   -0.801370
H      1.503178   -1.108558    1.980156
H      2.575604   -1.381415    0.581803
H      2.248565    1.222813    2.199778
H      3.621238    0.089461    2.279692
H      2.815213    1.850310   -0.135500
H      4.187181    2.112436    0.966564
H      3.874670   -0.274202   -0.983699
H      4.922166    1.153033   -1.195806
