29

C      3.067468   -0.068369    1.600527
C      2.353805    0.250270    0.311724
C      3.048532    0.830480   -0.682319
C      0.875773   -0.089754    0.145015
C      0.038289    1.209040    0.068538
C     -1.396512    1.035719   -0.464868
C     -2.159165   -0.176205    0.118605
O     -1.844322   -1.385817   -0.588473
C     -0.574421   -1.878028   -0.928660
O     -0.476705   -3.097097   -1.228986
C      0.651314   -1.010782   -1.068942
C     -3.668378    0.060743   -0.035993
O     -1.868360   -0.320185    1.487732
H      3.480360    0.863991    2.040697
H      3.899985   -0.776356    1.402841
H      2.387244   -0.529864    2.345878
H      4.101129    1.068416   -0.559791
H      2.577841    1.072280   -1.629946
H      0.558463   -0.649896    1.050464
H     -0.007210    1.656387    1.086100
H      0.541086    1.955382   -0.584150
H     -1.377382    0.956999   -1.573966
H     -1.941970    1.976705   -0.229217
H      1.532099   -1.682376   -1.182810
H      0.578608   -0.419567   -2.006825
H     -3.987818    0.949424    0.549962
H     -4.233883   -0.821631    0.332932
H     -3.927705    0.219648   -1.104946
H     -2.228166   -1.199557    1.776503
