33

C     -3.489389    0.984220    2.083887
C     -3.499627    0.533066    0.626197
C     -2.081792    0.223417    0.132540
C     -2.097698   -0.231899   -1.334842
C     -0.704277   -0.641753   -1.835871
C      0.196716    0.569801   -2.122318
C      1.566505    0.132721   -2.566266
C      2.522703   -0.321537   -1.743625
C      2.362217   -0.447485   -0.280356
C      3.357341   -0.911774    0.480229
C      3.205135   -1.057886    1.965120
C      3.149013    0.282944    2.626067
O      4.211831    0.905566    2.887332
O      1.921322    0.865207    2.914535
H     -3.072125    0.184540    2.732263
H     -2.879240    1.905370    2.198757
H     -4.527125    1.202788    2.412658
H     -4.135641   -0.374466    0.535863
H     -3.945450    1.338731    0.002993
H     -1.458023    1.135948    0.238403
H     -1.641445   -0.579775    0.763961
H     -2.768462   -1.114575   -1.425909
H     -2.511207    0.574035   -1.980289
H     -0.229694   -1.325331   -1.099827
H     -0.828870   -1.214948   -2.780871
H      0.283270    1.239543   -1.242435
H     -0.261862    1.165652   -2.941089
H      1.799247    0.213761   -3.621322
H      3.472519   -0.602289   -2.183979
H      1.432569   -0.162357    0.195411
H      4.295614   -1.210054    0.026493
H      2.284428   -1.635624    2.197201
H      4.071497   -1.625556    2.367276
