14

H      0.113628    0.067854    1.666345
C     -0.324554   -0.209006    0.682096
H     -0.195128   -1.304199    0.540107
C     -1.785307    0.112969    0.679989
O     -2.219766    1.081556    1.358987
O     -2.657725   -0.631605   -0.107556
C      0.391312    0.547555   -0.437864
H      0.260245    1.643370   -0.298532
H     -0.045728    0.267840   -1.421284
C      1.850356    0.217940   -0.442011
O      2.656091    0.908801    0.237295
O      2.310594   -0.879755   -1.162410
H     -3.647246   -0.416198   -0.132593
H      3.293227   -1.125949   -1.162570
