24

C      3.703427   -0.830718   -0.608472
C      2.300152   -0.981331   -0.128861
O      1.952351   -2.041373    0.458964
O      1.401323    0.079213   -0.288047
C      0.032701    0.022100    0.118927
C     -0.781359   -0.834519   -0.858574
C     -2.262717   -0.857444   -0.452342
C     -2.661306    0.418350    0.307273
O     -1.941012    1.535928   -0.176172
C     -0.557821    1.462193    0.161958
C     -0.313339    2.118001    1.494572
O      0.826049    2.294997    1.895879
H      3.745785   -0.080637   -1.425795
H      4.081625   -1.801414   -0.992981
H      4.346407   -0.492393    0.230342
H     -0.032941   -0.438098    1.132471
H     -0.685029   -0.407346   -1.881479
H     -0.388714   -1.873464   -0.885801
H     -2.887403   -0.960850   -1.366235
H     -2.460790   -1.738465    0.196267
H     -2.500182    0.286430    1.401829
H     -3.746714    0.602546    0.162750
H     -0.021456    2.069706   -0.599615
H     -1.149035    2.448588    2.103141
