22

C     -2.111984    0.169833    0.209476
C     -1.172799    0.450960    1.386170
C      0.261449    0.762343    0.910886
C      0.636464    0.070870   -0.424111
C     -0.118610   -1.260327   -0.586107
C     -1.646599   -1.050013   -0.610817
N      2.084848   -0.149878   -0.492537
C      3.016246    0.920936   -0.680486
O      2.619515    2.110098   -0.803828
H     -2.146523    1.067833   -0.446235
H     -3.141454   -0.008452    0.588583
H     -1.157780   -0.438318    2.054452
H     -1.562613    1.307626    1.977412
H      0.967841    0.451789    1.712110
H      0.370272    1.861520    0.784525
H      0.336821    0.728789   -1.271388
H      0.196206   -1.760944   -1.527775
H      0.145747   -1.934698    0.258787
H     -2.137534   -1.967226   -0.218424
H     -1.983909   -0.919634   -1.662242
H      2.468337   -1.120701   -0.436716
H      4.076056    0.707593   -0.721734
