24

C      3.478860    1.468558   -0.237646
O      2.969165    0.139908   -0.189736
C      1.606616   -0.185329   -0.099599
C      1.230958   -1.549998   -0.059747
C     -0.124058   -1.906782    0.030285
C     -1.088314   -0.900248    0.079525
C     -2.554252   -1.083867    0.174555
C     -3.110811    0.352983    0.192908
C     -1.911680    1.316954    0.105604
C     -0.734106    0.421716    0.041534
C      0.603625    0.810125   -0.047776
O      2.190008   -2.561261   -0.108597
H      3.199733    2.018152    0.686065
H      3.084601    1.996783   -1.131372
H      4.585198    1.429957   -0.307277
H     -0.417561   -2.948505    0.061135
H     -2.928638   -1.644455   -0.709000
H     -2.813324   -1.623035    1.111184
H     -3.679172    0.532066    1.131754
H     -3.793355    0.510861   -0.670656
H     -1.969001    1.941390   -0.811942
H     -1.853695    1.962794    1.008170
H      0.848276    1.863218   -0.075663
H      3.180927   -2.361986   -0.173707
