49

C     -2.869758    2.210478    1.156321
C     -2.564682    0.775718    0.698719
C     -3.760590    0.144494   -0.073685
C     -3.517722   -1.348164   -0.459010
C     -2.047928   -1.675898   -0.882951
C     -1.023967   -0.845954   -0.051331
C     -1.321229    0.644987   -0.209935
C     -0.022941    1.347240    0.261365
C      1.136928    0.348474   -0.050108
C      0.454609   -1.016083   -0.430330
C      1.119048   -2.281166    0.197837
C      2.664641   -2.183793    0.299165
C      3.171427   -0.727232    0.514243
C      2.073304    0.132889    1.150921
C      3.335899   -0.055637   -0.820628
C      4.394789   -0.197740   -1.626667
C      2.136846    0.765354   -1.160083
O      4.366733   -0.680794    1.252649
C      0.131519    2.725071   -0.334670
O     -0.059889    2.921215   -1.565667
O      0.527218    3.782671    0.478045
O     -1.263941   -1.076589    1.341719
C     -2.170830   -0.141461    1.804878
O     -2.640092   -0.138060    2.973375
O     -1.855585   -1.509691   -2.269129
H     -2.996506    2.871766    0.272974
H     -2.055252    2.615691    1.791675
H     -3.807540    2.230670    1.751282
H     -4.683112    0.205823    0.544455
H     -3.950056    0.729709   -1.000444
H     -4.222655   -1.644144   -1.265736
H     -3.771770   -1.976056    0.423343
H     -1.867560   -2.749720   -0.659222
H     -1.539594    0.922246   -1.264271
H     -0.071131    1.477940    1.365139
H      0.503405   -1.151628   -1.532756
H      0.729284   -2.452366    1.223508
H      0.842505   -3.179209   -0.395981
H      3.121534   -2.619235   -0.617071
H      2.995739   -2.824209    1.145619
H      2.489519    1.105938    1.500804
H      1.575847   -0.363942    2.013117
H      4.429260    0.311467   -2.584588
H      5.230307   -0.826330   -1.335793
H      2.430035    1.834026   -1.085435
H      1.762390    0.555849   -2.185331
H      4.158442   -1.006899    2.167057
H      0.650284    4.712956    0.096713
H     -2.347179   -0.700672   -2.564101
