48

C     -6.369984    0.043128   -1.534360
C     -5.609084   -0.646246   -0.402382
C     -4.461553   -1.502455   -0.974228
C     -3.644291   -2.252700    0.095864
C     -2.951657   -1.353978    1.136603
C     -1.946662   -0.375812    0.510429
C     -1.143442    0.355220    1.596713
C     -0.239837    1.458944    1.024345
C      0.941810    0.898993    0.218179
C      1.899920    2.023809   -0.202075
C      3.014909    1.533937   -1.139712
C      4.038707    0.638845   -0.425703
C      5.210010    0.293788   -1.357679
C      6.212757   -0.664288   -0.701171
C      6.949935   -0.009850    0.426585
O      7.909896    0.769951    0.185110
O      6.552812   -0.238401    1.740327
O     -6.506391   -1.452231    0.317706
H     -6.814410   -0.709352   -2.220711
H     -7.187296    0.666004   -1.112631
H     -5.687983    0.703696   -2.111456
H     -5.193546    0.159255    0.246381
H     -4.891015   -2.260837   -1.665413
H     -3.783164   -0.866295   -1.581904
H     -2.870511   -2.863149   -0.418872
H     -4.308870   -2.966644    0.628501
H     -3.707559   -0.796283    1.728584
H     -2.411071   -2.018257    1.846156
H     -2.492167    0.375218   -0.099974
H     -1.254681   -0.941847   -0.148725
H     -1.853367    0.829908    2.309323
H     -0.529296   -0.374136    2.169265
H      0.156899    2.052483    1.877217
H     -0.841350    2.144901    0.388231
H      0.562682    0.388805   -0.692685
H      1.486537    0.159510    0.842744
H      1.320377    2.806251   -0.739677
H      2.347674    2.496831    0.699454
H      2.570070    0.988300   -2.000736
H      3.539546    2.427915   -1.542922
H      4.423632    1.167966    0.472945
H      3.548716   -0.303756   -0.101352
H      5.733045    1.224426   -1.670902
H      4.811160   -0.195554   -2.273233
H      6.948709   -0.995119   -1.465582
H      5.687048   -1.570935   -0.330697
H      7.032311    0.207905    2.512973
H     -6.199974   -1.457866    1.261861
