33

C     -2.705960   -1.292898   -0.673344
C     -2.212338    0.128209   -0.312125
C     -1.813502    0.144963    1.182135
C     -3.396953    1.107255   -0.537660
O     -3.069104    2.407532   -0.126794
C     -1.008763    0.527861   -1.232926
C      0.148137   -0.444405   -1.153958
O      0.220883   -1.384273   -1.992191
N      1.147076   -0.317210   -0.131631
C      2.234660   -1.288370   -0.006350
C      3.190435   -0.923656    1.137129
C      4.030564    0.316690    0.811388
O      4.883060    0.617642    1.882418
O     -0.556312    1.821939   -0.920603
H     -1.928891   -2.056577   -0.457612
H     -3.607158   -1.560250   -0.079925
H     -2.968889   -1.354153   -1.751486
H     -1.060768   -0.640637    1.403527
H     -2.699768   -0.050598    1.823777
H     -1.387872    1.128984    1.471873
H     -3.675504    1.118965   -1.616233
H     -4.287011    0.762799    0.037351
H     -3.866686    2.967071   -0.315806
H     -1.377452    0.528474   -2.286824
H      1.073100    0.471954    0.549463
H      1.799105   -2.290005    0.199628
H      2.798255   -1.346541   -0.963120
H      3.874117   -1.782495    1.313044
H      2.611212   -0.752815    2.070886
H      4.623484    0.149134   -0.116882
H      3.366666    1.189356    0.638592
H      5.630271   -0.035062    1.843297
H     -0.008094    2.131120   -1.689037
