35

C      3.446885    1.834542    0.157990
C      2.299297    1.028466    0.211786
C      1.053336    1.592400   -0.079976
C     -0.116572    0.827860   -0.004802
C     -0.039355   -0.539082    0.319918
C      1.222166   -1.142535    0.540386
C      2.399883   -0.342335    0.570996
C      3.667824   -0.837624    0.981922
C      4.800889   -0.014515    0.908588
C      4.696059    1.310190    0.492028
O      5.839693    2.103626    0.429908
O      3.814154   -2.118558    1.512223
O      1.269458   -2.534896    0.663378
C     -1.299105   -1.326815    0.410705
O     -1.311293   -2.403677    1.065290
C     -2.565114   -0.784317   -0.154055
C     -2.640750    0.602745   -0.417520
C     -1.431603    1.448764   -0.288352
O     -1.518472    2.698787   -0.439936
C     -3.862635    1.174967   -0.811563
C     -5.002235    0.381484   -0.961756
C     -4.921716   -0.993206   -0.748957
C     -3.712748   -1.591873   -0.380917
O     -3.691659   -2.985583   -0.289472
O     -6.218498    0.948295   -1.336849
H      3.372709    2.875109   -0.136800
H      0.993446    2.640867   -0.350113
H      5.769074   -0.400880    1.202345
H      5.797633    3.072593    0.136183
H      4.712197   -2.471502    1.822286
H      2.066353   -3.092859    0.391001
H     -3.934650    2.238381   -1.003681
H     -5.800536   -1.608161   -0.899475
H     -2.843341   -3.534222   -0.284239
H     -6.310774    1.943565   -1.503732
