33

C      2.952764   -1.150924    0.616251
C      4.338011   -0.970060    0.648213
C      4.905736    0.209505    0.158282
C      4.081181    1.220317   -0.362110
C      2.693816    1.037129   -0.392711
C      2.118411   -0.154668    0.077605
C      0.644821   -0.306926    0.058738
C      0.046638   -1.451489   -0.328250
C     -1.458152   -1.624116   -0.261276
C     -2.224187   -0.342488    0.006796
C     -3.638037   -0.295491   -0.060960
C     -4.308162    0.896611    0.237937
C     -3.593662    2.041405    0.609032
C     -2.200291    1.996322    0.677079
C     -1.517113    0.815372    0.374324
O     -0.123489    0.802153    0.430697
O     -4.258911    3.227635    0.910706
O     -4.403078   -1.408344   -0.417206
O     -1.775989   -2.589850    0.708194
O      0.812991   -2.516298   -0.802940
O      4.619917    2.410111   -0.850538
O      6.285780    0.372878    0.196084
H      2.533958   -2.058423    1.032275
H      4.971001   -1.744605    1.062414
H      2.065776    1.822850   -0.795629
H     -1.777031   -2.008450   -1.253438
H     -5.389279    0.929962    0.184785
H     -1.645467    2.882211    0.959908
H     -5.269340    3.293291    0.870448
H     -4.001245   -2.306609   -0.651002
H     -1.486792   -2.232405    1.589306
H      0.382502   -3.385772   -1.094273
H      5.616922    2.589165   -0.849210
