24

C     -0.470403   -0.491146    0.523725
C      0.888494   -0.643674   -0.177816
C      1.642607    0.690601   -0.303040
C      3.039463    0.502611   -0.913555
N      3.905819   -0.294934   -0.049737
C      4.307615    0.130664    1.080655
O      4.697550    0.544545    2.179679
C     -1.509560    0.229785   -0.348008
C     -2.880506    0.241380    0.328565
N     -3.837344    0.941294   -0.517629
C     -5.050619    1.080302   -0.162612
O     -6.231162    1.215535    0.182880
H     -0.847954   -1.509765    0.762479
H     -0.339125    0.052506    1.485115
H      0.744717   -1.093677   -1.184614
H      1.501374   -1.351351    0.421622
H      1.073651    1.378199   -0.963451
H      1.733616    1.172713    0.694655
H      3.504830    1.496849   -1.093246
H      2.946091   -0.006597   -1.896500
H     -1.594393   -0.284633   -1.330466
H     -1.192454    1.279789   -0.523297
H     -2.806814    0.757412    1.311823
H     -3.225492   -0.803817    0.492774
