50

C     -2.808122   -1.348548   -2.398707
C     -3.394933   -0.396387   -1.384312
C     -2.591369    0.404549   -0.633014
C     -3.146796    1.370722    0.429845
C     -4.670231    1.621057    0.242595
C     -5.425295    0.327983   -0.050454
C     -4.903451   -0.289961   -1.341748
C     -2.899608    0.765990    1.832878
C     -2.416362    2.738352    0.358243
O     -2.518479    3.287651   -0.929794
C     -1.120463    0.288227   -0.774027
C     -0.422774   -0.583299   -0.039488
C      1.044271   -0.755327   -0.167189
C      1.717208   -1.239228    0.896962
C      3.175423   -1.470060    0.970114
C      4.082042   -0.565452    0.566169
C      5.547730   -0.783924    0.656411
C      6.080575   -1.455759    1.702088
C      7.516106   -1.738281    1.915030
O      7.876734   -2.263000    3.000932
O      8.480234   -1.460691    0.955856
C      6.398161   -0.142917   -0.406530
C      1.718602   -0.455878   -1.486265
H     -3.602813   -1.880317   -2.964062
H     -2.186711   -2.111558   -1.884203
H     -2.181643   -0.793950   -3.129879
H     -5.103344    2.098355    1.150185
H     -4.845744    2.326773   -0.601862
H     -6.511177    0.542109   -0.154603
H     -5.298220   -0.388572    0.785801
H     -5.239375    0.322881   -2.207689
H     -5.353030   -1.301314   -1.447021
H     -1.814032    0.716756    2.059868
H     -3.376992    1.385745    2.623678
H     -3.302857   -0.266580    1.901647
H     -2.865791    3.443825    1.098790
H     -1.341502    2.619040    0.622821
H     -2.016340    4.142924   -0.903428
H     -0.630244    0.922281   -1.501255
H     -0.947910   -1.172327    0.706428
H      1.154666   -1.552933    1.772315
H      3.498381   -2.383570    1.448285
H      3.744142    0.361218    0.122099
H      5.421683   -1.799469    2.489818
H      6.959798   -0.921667   -0.962931
H      5.772299    0.398969   -1.149836
H      7.098728    0.587414    0.047593
H      1.015405   -0.625765   -2.327874
H      2.582504   -1.128905   -1.664863
H      2.050914    0.602820   -1.511298
