42

C     -0.186722    1.200263   -2.228860
N     -0.572050    0.258829   -1.169323
C     -1.580155    0.652810   -0.215233
C     -2.795339    1.244863   -0.629821
C     -3.772742    1.631163    0.315950
C     -3.558052    1.439611    1.700374
C     -2.341882    0.852266    2.071408
N     -1.872636    0.573725    3.297346
O     -0.689769    0.052822    3.088224
N     -0.353812   -0.027615    1.825490
C     -1.404644    0.477480    1.161989
N     -4.546795    1.835313    2.668192
O     -4.354307    1.659265    3.888943
O     -5.726169    2.414831    2.259980
C     -0.043169   -1.119170   -1.162128
C     -0.615619   -1.889084   -2.373953
C     -0.496329   -3.377470   -2.207676
O      0.339010   -4.023678   -2.893309
O     -1.300585   -4.053709   -1.294824
C      1.474655   -1.114486   -1.120119
O      2.128533   -1.999785   -1.736871
N      2.174138   -0.144686   -0.326194
C      3.631526   -0.173205   -0.195725
C      4.134414    0.933296    0.737841
C      3.678181    0.706557    2.149485
O      2.712193    1.368201    2.612874
O      4.296064   -0.252025    2.947102
H     -1.039788    1.378291   -2.914761
H      0.657165    0.805387   -2.832506
H      0.131925    2.162654   -1.775896
H     -3.001315    1.394011   -1.680874
H     -4.692906    2.076869   -0.038679
H     -0.384757   -1.640603   -0.241892
H     -1.695212   -1.647529   -2.483827
H     -0.110023   -1.566769   -3.310712
H     -1.985763   -3.560698   -0.734674
H      1.629005    0.601387    0.160006
H      4.087523   -0.028734   -1.198888
H      3.952684   -1.164750    0.192170
H      3.779526    1.922487    0.374098
H      5.245148    0.946939    0.718627
H      5.068851   -0.805324    2.596646
