36

C     -3.098858   -0.968487   -1.644229
C     -2.669179    0.304347   -0.894298
C     -3.475093    0.548009    0.405577
C     -2.982363   -0.362555    1.534373
C     -1.456385   -0.292331    1.656318
C     -0.814067   -0.575241    0.289710
O     -1.264381    0.363087   -0.679245
O      0.587793   -0.447743    0.431576
C      1.249258   -1.053161   -0.661894
C      2.746989   -0.755421   -0.583832
C      3.035167    0.745876   -0.746444
C      4.538596    1.050614   -0.746541
C      5.151192    0.817997    0.600564
O      5.819762   -0.225776    0.821955
O      4.955880    1.739585    1.621442
O     -1.008473   -1.241622    2.588553
O     -3.336656    1.887660    0.806622
H     -2.421740   -1.143292   -2.506941
H     -4.132832   -0.844731   -2.031053
H     -3.086486   -1.863187   -0.989935
H     -2.913227    1.142462   -1.583358
H     -4.553921    0.326628    0.227213
H     -3.449843   -0.052373    2.494445
H     -3.295562   -1.410805    1.335723
H     -1.156407    0.730899    1.985312
H     -1.074875   -1.619473   -0.005928
H      0.859321   -0.680524   -1.637352
H      1.115854   -2.157728   -0.621241
H      3.263970   -1.319792   -1.390506
H      3.134631   -1.114561    0.394139
H      2.610903    1.092690   -1.714091
H      2.538946    1.321068    0.066154
H      4.688526    2.116768   -1.021021
H      5.053706    0.432956   -1.514632
H     -1.225964   -0.882733    3.488445
H     -3.934182    2.426137    0.224417
