43

C     -3.657161    0.615087   -2.194754
C     -3.166923    0.727995   -0.750116
C     -4.352998    0.957409    0.211457
C     -3.846392    0.989993    1.660547
C     -2.936194   -0.209025    1.966830
C     -1.873509   -0.394544    0.862210
O     -2.476454   -0.468475   -0.423588
O     -0.921986    0.657230    0.928904
C      0.255376    0.328154    0.214335
C      1.312284   -0.232321    1.174974
C      2.683441   -0.418457    0.506891
C      2.698396   -1.585702   -0.495612
C      4.111507   -1.885085   -1.012271
C      4.623129   -0.778652   -1.891652
C      5.530347    0.100744   -1.455557
C      6.009508    1.208494   -2.295284
O      6.860909    2.013413   -1.835741
O      5.536142    1.381792   -3.591112
O     -3.692276   -1.381450    2.153123
O     -4.981347    2.176157   -0.092692
H     -4.366523   -0.233685   -2.299614
H     -4.161215    1.552644   -2.511899
H     -2.792866    0.440025   -2.870212
H     -2.478642    1.603705   -0.711465
H     -5.080999    0.120744    0.093665
H     -4.708851    0.996028    2.362103
H     -3.271943    1.928847    1.825016
H     -2.409184   -0.003265    2.924161
H     -1.379647   -1.372675    1.067708
H      0.645302    1.264926   -0.237519
H      0.072230   -0.376069   -0.629643
H      1.431410    0.480842    2.019706
H      0.966469   -1.198465    1.601301
H      2.982249    0.525214    0.000983
H      3.429024   -0.622168    1.306425
H      2.035540   -1.362139   -1.358820
H      2.311384   -2.500431    0.004183
H      4.078051   -2.816484   -1.616965
H      4.798576   -2.076026   -0.158187
H      4.196995   -0.679713   -2.882922
H      5.928255    0.009429   -0.451501
H     -4.074870   -1.645749    1.276877
H     -5.866544    2.161708    0.356963
