50

C      5.869712   -0.822892    1.136902
C      7.241367   -0.978295    1.358901
C      8.160514   -0.175734    0.676503
C      7.701882    0.788336   -0.230607
C      6.330885    0.946701   -0.454300
C      5.401277    0.137821    0.222933
C      3.945459    0.314462   -0.009752
C      3.384191    1.598864    0.028670
O      2.084841    1.780915   -0.169033
C      1.246638    0.779834   -0.412170
C     -0.109388    1.057713   -0.605101
C     -1.022633    0.030448   -0.856132
C     -0.559299   -1.295020   -0.934528
C      0.795182   -1.590491   -0.744885
C      1.716731   -0.552423   -0.476627
C      3.095973   -0.776689   -0.276727
O      3.576255   -1.940954   -0.355020
O      1.203795   -2.917988   -0.828757
O     -2.370351    0.381355   -1.035758
C     -3.490163   -0.508400   -1.011236
C     -3.746672   -1.037301    0.425503
C     -5.248346   -1.203092    0.661321
C     -5.940977    0.160123    0.497190
C     -5.372086    0.949695   -0.718671
O     -4.615106    0.133407   -1.605753
C     -4.622548    2.233893   -0.303380
O     -4.269762    2.985365   -1.434071
O     -7.322271   -0.037288    0.321827
O     -5.468356   -1.700037    1.957076
O     -3.101029   -2.273528    0.597625
O      9.524112   -0.342380    0.907377
H      5.174231   -1.441291    1.690560
H      7.590194   -1.720451    2.065723
H      8.406369    1.414385   -0.763280
H      5.995731    1.691726   -1.165390
H      4.006299    2.461661    0.229858
H     -0.459408    2.081585   -0.552165
H     -1.231686   -2.109026   -1.158739
H     -3.272461   -1.373324   -1.672542
H     -3.346735   -0.296126    1.159311
H     -5.645266   -1.921827   -0.096365
H     -5.771009    0.754458    1.427769
H     -6.243022    1.310702   -1.310094
H     -5.298742    2.857683    0.319625
H     -3.730796    2.008053    0.321840
H     -3.409349    2.621978   -1.767096
H     -7.714359   -0.179736    1.222840
H     -6.361594   -2.133047    1.952309
H     -2.923341   -2.377694    1.568881
H     10.215118    0.223870    0.429085
