24

C      3.988255   -0.378297   -0.941323
C      3.351200   -0.792947    0.379887
O      1.928499   -0.766648    0.282738
C      1.173995    0.413720    0.296396
O      1.745281    1.528086    0.454440
C     -0.295528    0.349756    0.132429
C     -0.935574   -0.888391   -0.044956
C     -2.327103   -0.957121   -0.201823
C     -3.092749    0.220495   -0.182270
C     -2.462528    1.458543   -0.006249
C     -1.071148    1.522138    0.150111
O     -3.226912    2.624098    0.012233
O     -4.478814    0.177228   -0.336265
O     -2.950889   -2.191611   -0.377069
H      3.724034    0.671436   -1.186566
H      3.634407   -1.043216   -1.757401
H      5.092980   -0.459037   -0.864570
H      3.696476   -0.128080    1.201295
H      3.669677   -1.829384    0.619091
H     -0.358791   -1.804761   -0.062661
H     -0.600341    2.488116    0.284991
H     -2.802087    3.535543    0.137552
H     -4.979762   -0.693495   -0.466337
H     -2.422579   -3.056173   -0.395131
