35

C     -4.110136   -2.968361    0.703010
C     -2.983250   -2.103033    1.243465
O     -2.519805   -1.229300    0.219596
C     -1.480325   -0.316956    0.421499
O     -0.903367   -0.245558    1.542045
C     -1.015232    0.529252   -0.735216
C      0.102554   -0.172779   -1.531378
C      1.371845   -0.350357   -0.733059
C      1.589816   -1.527799    0.001602
C      2.753546   -1.680066    0.761215
C      3.710485   -0.656830    0.795809
C      3.497031    0.517657    0.067192
C      2.334230    0.672350   -0.693256
O      4.873298   -0.796866    1.549902
N     -0.585123    1.859705   -0.286446
C     -0.581183    2.997269   -1.160141
O     -1.035742    2.905619   -2.332623
C     -0.007497    4.293922   -0.690183
H     -3.745710   -3.573942   -0.153715
H     -4.473453   -3.651508    1.499425
H     -4.951921   -2.327477    0.365170
H     -3.357321   -1.507575    2.104436
H     -2.150544   -2.755852    1.584729
H     -1.889602    0.649040   -1.412557
H      0.323328    0.418080   -2.447014
H     -0.263447   -1.162517   -1.883897
H      0.856163   -2.324500   -0.009660
H      2.909301   -2.591670    1.323908
H      4.232236    1.311935    0.091633
H      2.182848    1.589495   -1.248819
H      5.057004   -1.635142    2.088817
H     -0.156693    1.972603    0.660482
H     -0.213959    5.101936   -1.423877
H     -0.459836    4.571098    0.284821
H      1.090460    4.188127   -0.566912
