47

C      7.256162   -0.974226   -0.206604
O      6.762704    0.359497   -0.127722
C      5.434149    0.703078    0.172936
C      5.062309    2.062541    0.152275
C      3.747888    2.435139    0.453293
C      2.797289    1.466421    0.781858
C      3.154593    0.106959    0.822827
C      4.467990   -0.270594    0.501318
C      2.134479   -0.939224    1.200112
C      1.597198   -1.692624   -0.027292
C      0.875670   -0.784214   -0.993567
O      1.405660   -0.488974   -2.056547
C     -0.487613   -0.235511   -0.666902
C     -1.567752   -0.977329   -1.469652
C     -2.963769   -0.356020   -1.308940
C     -3.491840   -0.436572    0.131547
C     -4.936105   -0.013887    0.190789
C     -5.961663   -0.967173    0.062115
C     -7.302066   -0.570578    0.105541
C     -7.627838    0.780511    0.266895
C     -6.613667    1.735153    0.383400
C     -5.271617    1.341199    0.342244
O      5.986592    3.058730   -0.167017
H      6.727074   -1.530616   -1.009708
H      7.125940   -1.493227    0.767660
H      8.338725   -0.941475   -0.447548
H      3.465678    3.481217    0.442916
H      1.786000    1.776028    1.017026
H      4.729620   -1.320392    0.522352
H      1.293714   -0.479836    1.765554
H      2.606484   -1.677878    1.886095
H      2.437475   -2.204843   -0.546301
H      0.892640   -2.482877    0.311623
H     -0.685098   -0.357392    0.418980
H     -0.508816    0.853662   -0.899992
H     -1.304024   -0.950107   -2.550113
H     -1.596764   -2.042942   -1.156312
H     -3.657957   -0.908481   -1.977613
H     -2.942856    0.702629   -1.643402
H     -3.386128   -1.474744    0.518683
H     -2.891232    0.228465    0.794541
H     -5.722497   -2.016401   -0.066930
H     -8.088869   -1.308422    0.014214
H     -8.666817    1.087962    0.300283
H     -6.867269    2.779032    0.500071
H     -4.494275    2.092356    0.429439
H      6.950499    2.845980   -0.397943
