43

C     -5.412873    1.870167    1.477193
C     -5.285627    0.794769    0.384781
C     -6.663097    0.230112    0.036114
N     -4.408315   -0.313246    0.810751
C     -2.983856   -0.043890    0.557931
C     -2.585254   -0.544535   -0.844114
C     -1.112020   -0.246584   -1.159661
O     -0.256565   -0.902619   -0.225175
C      1.143523   -0.826269   -0.241374
C      1.857814   -1.517888    0.743580
C      3.254560   -1.473944    0.771345
C      3.958998   -0.742353   -0.196910
C      3.245915   -0.036827   -1.178313
C      1.848751   -0.081026   -1.205587
C      5.461542   -0.665765   -0.147292
C      5.911362    0.515245    0.715884
C      7.407185    0.593633    0.758880
O      8.037539    0.058309    1.708370
O      8.112584    1.217494   -0.265918
O     -2.857193   -1.916948   -0.988527
H     -4.417509    2.290523    1.729049
H     -6.056285    2.702117    1.119378
H     -5.862889    1.443472    2.399206
H     -4.888125    1.278020   -0.536140
H     -6.565924   -0.525803   -0.772134
H     -7.122369   -0.254564    0.924414
H     -7.333613    1.040522   -0.321826
H     -4.545907   -0.504421    1.831572
H     -2.748531    1.039103    0.656683
H     -2.371708   -0.576433    1.319899
H     -3.196070   -0.000683   -1.596014
H     -0.883616   -0.603744   -2.187481
H     -0.941499    0.851498   -1.116428
H      1.326506   -2.089701    1.493906
H      3.786790   -2.008875    1.548246
H      3.772463    0.548940   -1.921797
H      1.327991    0.469339   -1.977068
H      5.865979   -0.553672   -1.177775
H      5.873183   -1.612189    0.268458
H      5.509265    1.463672    0.297862
H      5.516156    0.399070    1.749173
H      7.631401    1.638317   -1.051806
H     -2.350659   -2.402344   -0.285961
