30

C      3.772400    1.368233   -0.662094
C      3.390661    0.808280    0.707601
C      3.011389   -0.682727    0.664437
C      1.786140   -1.013579   -0.206897
C      0.495358   -0.354102    0.300714
C     -0.722779   -0.854151   -0.485211
C     -2.010325   -0.183626    0.008397
C     -3.227446   -0.683896   -0.779066
C     -4.498819   -0.060998   -0.271471
C     -4.783872    1.227520   -0.481823
H      4.185604    2.391620   -0.540064
H      2.881213    1.434271   -1.320123
H      4.544066    0.729947   -1.142570
H      4.265422    0.921220    1.384084
H      2.565907    1.410419    1.142835
H      2.819007   -1.029544    1.703143
H      3.881170   -1.263103    0.286273
H      1.654018   -2.117787   -0.193786
H      1.973353   -0.721252   -1.261899
H      0.569015    0.747952    0.181088
H      0.358312   -0.588592    1.379315
H     -0.812650   -1.956239   -0.363293
H     -0.581222   -0.628170   -1.565313
H     -2.153620   -0.410740    1.088154
H     -1.917496    0.918247   -0.111262
H     -3.306813   -1.787141   -0.667768
H     -3.107237   -0.454498   -1.860673
H     -5.218248   -0.683231    0.252724
H     -4.096049    1.871686   -1.021151
H     -5.716460    1.643981   -0.115360
