26

C     -1.409276    1.445034   -0.419484
N     -1.351649   -0.027540   -0.254418
C     -2.101956   -0.650498   -1.372592
C     -2.009925   -0.412411    1.017589
C      0.057268   -0.525920   -0.311684
C      0.998855    0.032757    0.784655
C      2.410203   -0.564208    0.686387
C      3.134221   -0.089038   -0.539487
O      3.253935   -0.851492   -1.534394
O      3.654824    1.200300   -0.598685
H     -2.460446    1.793987   -0.532503
H     -0.994659    1.973288    0.465500
H     -0.841062    1.768773   -1.319954
H     -1.654459   -0.380043   -2.355653
H     -3.164491   -0.317578   -1.384670
H     -2.098489   -1.760733   -1.287960
H     -1.593417    0.147845    1.881616
H     -3.099114   -0.183484    0.989562
H     -1.893130   -1.501414    1.214675
H      0.065386   -1.637814   -0.234338
H      0.498589   -0.277315   -1.303740
H      0.606451   -0.225495    1.789122
H      1.076395    1.137660    0.715707
H      2.356058   -1.674992    0.693291
H      2.994107   -0.256829    1.580453
H      3.565782    1.837160    0.184024
