15

C     -2.211600   -0.517305   -0.188159
C     -1.675322    0.761711   -0.327000
C     -0.298708    0.970568   -0.192075
C      0.530824   -0.132334    0.135131
N     -0.029520   -1.369392    0.248312
C     -1.361363   -1.584969    0.089949
C      1.979542   -0.015856    0.393532
O      2.482863    1.055990    0.823065
O      2.792619   -1.133468    0.229039
O      0.193622    2.256871   -0.423136
H     -3.274912   -0.681002   -0.306677
H     -2.328291    1.591643   -0.566193
H     -1.760541   -2.585302    0.191155
H      3.785779   -1.087531    0.423634
H      1.175008    2.470377   -0.530578
