46

C      0.488788    4.486334    0.863362
C      0.129249    3.074084    0.492059
C     -0.644473    2.344157    1.309194
C     -1.028060    0.905864    1.037065
C     -0.026016    0.153232    0.061957
C      0.222799    1.109812   -1.167569
C      0.717825    2.456449   -0.710953
O      1.584069    3.077921   -1.385227
O      1.126320    0.551026   -2.087730
C     -0.708570   -1.243001   -0.344416
C     -1.205437   -2.022277    0.925503
C     -2.638631   -1.500315    1.242052
C     -2.895313   -0.387920    0.212473
C     -2.075763   -0.915998   -0.918760
C     -2.733542   -1.652183   -2.028126
O     -2.220350   -0.339469   -2.190606
O     -2.394878    0.895505    0.600625
O     -2.772435   -1.034588    2.559129
C      0.147458   -2.170443   -1.241377
C      1.331054   -0.063105    0.828237
O      2.366809   -0.519539   -0.036823
C      3.668651   -0.769863    0.403928
O      3.992690   -0.569444    1.606036
C      4.695946   -1.232325   -0.571803
H      1.448919    4.488146    1.420421
H     -0.298214    4.949807    1.496436
H      0.597369    5.110408   -0.048556
H     -1.058538    2.804400    2.199275
H     -0.963703    0.431989    2.037111
H     -0.735246    1.335786   -1.673880
H      0.938493    0.961850   -2.972271
H     -0.545512   -1.924025    1.806154
H     -1.276175   -3.113313    0.717732
H     -3.376881   -2.318739    1.064424
H     -3.975986   -0.308407   -0.035902
H     -3.842825   -1.637837   -2.064576
H     -2.148623   -2.360861   -2.646375
H     -2.722561   -1.834159    3.145082
H     -0.375335   -3.132195   -1.426646
H      1.099880   -2.438829   -0.745978
H      0.348542   -1.715920   -2.230106
H      1.667352    0.889202    1.290561
H      1.226902   -0.775654    1.666843
H      5.387505   -1.952185   -0.085411
H      5.273656   -0.359940   -0.941471
H      4.202791   -1.733438   -1.431096
