37

C      6.496842    1.312407   -0.611144
C      6.317902   -0.158735   -0.237372
C      5.581288   -0.334626    1.098743
C      4.158704    0.146845    1.035502
C      3.230215   -0.503350    0.329404
C      1.839162   -0.024434    0.283840
C      0.912273   -0.673599   -0.423471
C     -0.478705   -0.194352   -0.469390
C     -1.407147   -0.843340   -1.176966
C     -2.826189   -0.357790   -1.244264
C     -3.549736   -0.573971    0.088202
C     -4.970758   -0.115861   -0.009638
C     -6.043442   -0.888673   -0.418156
C     -7.142085   -0.055233   -0.383985
C     -6.659393    1.166628    0.038187
O     -5.366963    1.108878    0.252045
O     -7.420132    2.316855    0.216953
H      7.049583    1.849866    0.188504
H      7.077208    1.386851   -1.554802
H      5.510296    1.798087   -0.766302
H      7.322854   -0.625671   -0.151810
H      5.771817   -0.684138   -1.050460
H      5.591732   -1.408588    1.385925
H      6.120922    0.225457    1.892973
H      3.889738    1.031210    1.601779
H      3.503112   -1.398492   -0.218604
H      1.568483    0.870423    0.834132
H      1.183007   -1.568325   -0.973944
H     -0.751479    0.700862    0.078699
H     -1.137727   -1.726832   -1.744530
H     -3.355599   -0.922399   -2.042750
H     -2.839016    0.720131   -1.519134
H     -3.044354   -0.000504    0.894827
H     -3.526438   -1.651972    0.360554
H     -6.025841   -1.930328   -0.710396
H     -8.162999   -0.306513   -0.638836
H     -8.417137    2.313229    0.037704
