29

C      3.108274   -0.404554   -0.894365
C      2.139296    0.126466    0.176208
C      0.981067   -0.854205    0.491973
C      0.146589   -1.217866   -0.781857
C     -1.359935   -0.976600   -0.613405
C     -1.666806    0.482032   -0.149479
C     -0.629956    0.981180    0.921842
C      0.105021   -0.197992    1.578610
O      0.321450    1.883083    0.327945
C      1.577738    1.489900   -0.163470
O      2.275947    2.324703   -0.797825
C     -3.087905    0.523876    0.452873
O     -1.618729    1.348408   -1.262214
H      4.033549    0.210316   -0.900509
H      3.395543   -1.452702   -0.665169
H      2.666879   -0.364366   -1.911089
H      2.738918    0.247591    1.106059
H      1.412042   -1.787538    0.918111
H      0.464117   -0.624123   -1.663620
H      0.313757   -2.286664   -1.037477
H     -1.750818   -1.712732    0.123730
H     -1.875534   -1.195899   -1.573969
H     -1.152209    1.547074    1.724447
H      0.730781    0.167345    2.422930
H     -0.616258   -0.927544    2.006629
H     -3.831786    0.125525   -0.270365
H     -3.370813    1.569729    0.699710
H     -3.138462   -0.086022    1.380674
H     -2.311759    1.061581   -1.913487
