33

C      5.167995   -1.234920    0.160828
O      4.084465   -0.310395    0.173489
C      2.723533   -0.659865    0.103250
C      1.728902    0.355123    0.124176
C      0.346136   -0.002489    0.068264
C     -0.002879   -1.374782   -0.053672
C      0.993547   -2.352404   -0.069538
C      2.334304   -2.005013    0.012735
O     -1.331077   -1.783575   -0.176856
C     -0.629493    1.032538    0.119318
C     -0.212581    2.364590    0.179131
N      1.103579    2.679441    0.212646
C      2.073266    1.728967    0.195461
O      3.278468    2.097971    0.240706
C     -2.085025    0.786162    0.152921
C     -2.865604    1.012993   -0.991054
C     -4.246570    0.796110   -0.951807
C     -4.854241    0.361064    0.229907
C     -4.082457    0.145354    1.375619
C     -2.701307    0.361236    1.340772
H      5.097003   -1.919038    1.032648
H      5.163862   -1.815779   -0.785594
H      6.122638   -0.674148    0.227783
H      0.725668   -3.398226   -0.154523
H      3.067142   -2.799726   -0.004650
H     -1.586970   -2.759898   -0.268187
H     -0.946781    3.161776    0.214257
H      1.373530    3.688194    0.262629
H     -2.403878    1.351794   -1.910398
H     -4.845859    0.966443   -1.836814
H     -5.923185    0.193898    0.258560
H     -4.554645   -0.187637    2.290786
H     -2.111486    0.194241    2.233769
