18

C     -1.826865   -1.503679    0.336745
C     -0.566261   -0.703502    0.143636
C     -0.596517    0.704131   -0.030881
C      0.613278    1.397668   -0.242592
C      1.832260    0.710003   -0.264357
C      1.855881   -0.673750   -0.069253
C      0.667983   -1.373947    0.137538
O      3.017979    1.412071   -0.474526
O      0.612485    2.778703   -0.411207
N     -1.837094    1.432511    0.001165
O     -2.693372    1.189228    0.876079
O     -2.051130    2.478004   -0.867189
H     -2.192783   -1.378951    1.377186
H     -2.609062   -1.169925   -0.377241
H     -1.651623   -2.585547    0.154612
H      2.796667   -1.209458   -0.079024
H      0.712171   -2.446423    0.282949
H      3.916000    0.942865   -0.493641
