40

C     -5.513011    0.969786   -0.213498
C     -5.035402   -0.448256   -0.521973
C     -3.757627   -0.853999    0.242078
C     -2.462698   -0.040313   -0.072191
C     -2.167955   -0.052362   -1.585855
C     -1.277916   -0.691670    0.697616
C     -0.003956    0.102517    0.598189
O      0.174904    1.084045    1.369627
N      0.987775   -0.240919   -0.381490
C      2.253621    0.486339   -0.507502
C      3.309574   -0.148353    0.416313
C      4.601125    0.678143    0.474884
C      5.587298    0.043053    1.407583
O      5.641925    0.414502    2.610290
N      6.434403   -1.012103    0.953034
C      2.698308    0.480913   -1.945116
O      2.977308   -0.602159   -2.525214
O      2.795280    1.676974   -2.645096
O     -2.613361    1.298417    0.338618
H     -4.857352    1.718648   -0.703229
H     -5.534397    1.146211    0.882904
H     -6.539995    1.107421   -0.612732
H     -4.901377   -0.572771   -1.616551
H     -5.843523   -1.150792   -0.222714
H     -3.567454   -1.926275    0.013333
H     -3.970806   -0.801854    1.332829
H     -2.955206    0.492013   -2.146658
H     -1.212457    0.466228   -1.808167
H     -2.104900   -1.094426   -1.966662
H     -1.101231   -1.723136    0.321120
H     -1.539645   -0.788366    1.774492
H      0.846665   -1.110533   -0.945083
H      2.100178    1.545678   -0.202954
H      3.537419   -1.182411    0.073579
H      2.887430   -0.218938    1.443365
H      5.056004    0.752368   -0.536011
H      4.372604    1.708537    0.824872
H      7.113501   -1.461602    1.606523
H      6.380269   -1.350431   -0.033278
H     -2.795322    1.299873    1.315177
