28

C     -4.409745    0.491182    0.928585
C     -3.527385   -0.224105   -0.046182
O     -4.019880   -1.125813   -0.776561
C     -2.091817    0.109586   -0.146244
O     -1.602396    0.973300    0.632339
C     -1.191993   -0.610005   -1.124169
C     -0.626713   -1.900199   -0.498852
N      0.414507   -1.590935    0.480880
C      1.368872   -0.558250    0.217233
C      1.125749    0.355935   -0.811221
N     -0.100034    0.270745   -1.558053
C      2.084936    1.346392   -1.060696
O      1.909650    2.188300   -1.982344
N      3.211165    1.403115   -0.297093
C      3.418815    0.511149    0.712866
N      2.499801   -0.459337    0.961794
N      4.599943    0.588024    1.510994
H     -5.460214    0.142651    0.833437
H     -4.059986    0.293714    1.963506
H     -4.378004    1.583400    0.732132
H     -1.785522   -0.890419   -2.021806
H     -0.181131   -2.523558   -1.303868
H     -1.435376   -2.493165   -0.018505
H      0.517959   -2.190910    1.329788
H     -0.280155    0.933789   -2.345447
H      3.922796    2.145419   -0.485568
H      5.317026    1.325941    1.333711
H      4.759133   -0.095947    2.283696
