14

C      0.641489    0.238731    0.906731
C      1.912104    0.912428    0.608919
N      2.913346    1.443180    0.374386
C     -0.187758    0.011248   -0.372264
C     -1.550412   -0.517528   -0.011898
O     -1.695641   -1.727254    0.308891
O     -2.654582    0.330193    0.018634
N      0.473616   -0.917111   -1.295546
H      0.070991    0.879728    1.612999
H      0.854245   -0.728583    1.410541
H     -0.321535    0.987103   -0.891409
H     -2.571042    1.314133   -0.206885
H      0.788055   -1.769222   -0.775711
H      1.327124   -0.457046   -1.687388
