17

C      0.743017    0.090958    0.050828
C      1.827536    0.761796    0.455201
C      3.207557    0.265526    0.279783
O      4.162655    1.070878    0.432606
O      3.496895   -1.065172   -0.023580
C     -0.606424    0.667700    0.235946
C     -1.758041    0.003754    0.002520
C     -3.057710    0.706606    0.128064
O     -3.108472    1.935455    0.403836
O     -4.246113    0.011197   -0.059297
N     -1.767003   -1.389358   -0.348198
H      0.857546   -0.848374   -0.464910
H      1.706641    1.737893    0.911788
H      2.790795   -1.787841   -0.063057
H     -0.655071    1.702435    0.556905
H     -2.648177   -1.850023   -0.665979
H     -0.945632   -2.013432   -0.198681
