28

C     -4.319358   -0.637532    0.899493
C     -2.884042   -0.628326    0.358614
C     -2.173626    0.719536    0.642959
C     -0.770802    0.720515    0.081805
C     -0.446514    1.477989   -1.056813
N      0.818234    1.439041   -1.554774
C      1.776783    0.674166   -0.972110
C      1.456498   -0.090241    0.159215
N      0.192225   -0.052428    0.657480
C      2.456680   -0.873744    0.740459
O      2.207289   -1.575497    1.757829
N      3.707709   -0.876171    0.201270
C      3.999921   -0.124653   -0.899822
N      3.035560    0.642368   -1.477163
N      5.316161   -0.138676   -1.452394
O     -2.142930    1.002975    2.020868
O     -2.887247   -0.912541   -1.018988
H     -4.318260   -0.519704    2.003780
H     -4.806804   -1.604582    0.653063
H     -4.912654    0.186374    0.448433
H     -2.325849   -1.443397    0.869627
H     -2.760650    1.529899    0.156611
H     -1.191816    2.091422   -1.546148
H      4.453849   -1.463272    0.638877
H      6.069141   -0.721036   -1.023400
H      5.540057    0.435975   -2.294933
H     -1.709990    0.237051    2.481603
H     -3.379566   -0.180497   -1.475441
