29

C      4.832473    0.422429   -0.013801
C      4.045494    1.351703   -0.931557
N      2.695971    1.566438   -0.412725
C      1.658247    0.582716   -0.511939
N      1.884460   -0.604266   -1.130709
C      0.895856   -1.527177   -1.220598
O      1.118310   -2.626355   -1.793380
N     -0.329935   -1.266688   -0.693174
C     -0.567384   -0.072011   -0.076299
N      0.433554    0.842378    0.010871
N     -1.848492    0.246161    0.497017
C     -3.050243   -0.587856    0.370231
C     -4.104610   -0.156444    1.395915
C     -3.620448   -0.479747   -1.048277
H      4.877299    0.848359    1.011011
H      5.867341    0.307516   -0.399368
H      4.356949   -0.579558    0.028582
H      3.997610    0.928203   -1.957989
H      4.575296    2.327169   -0.988496
H      2.464649    2.497550    0.001737
H     -1.070443   -1.997225   -0.768917
H     -1.916675    1.143279    1.030664
H     -2.797861   -1.646770    0.592153
H     -4.997889   -0.813718    1.328831
H     -4.417139    0.895393    1.219510
H     -3.687850   -0.238405    2.422378
H     -2.873633   -0.812538   -1.797992
H     -4.520969   -1.122336   -1.149373
H     -3.899940    0.571802   -1.273739
