50

C     -3.122031    0.752554   -2.847335
C     -3.441598    0.619301   -1.358790
C     -4.246116   -0.677032   -1.061748
C     -4.055584   -1.049761    0.412130
C     -2.548672   -1.261784    0.720925
C     -1.652486   -0.458402   -0.248424
O     -2.258369    0.779710   -0.576046
O     -0.405865   -0.216998    0.404476
C      0.805292    0.216973   -0.171374
C      1.943372    0.285047    0.658994
O      3.130056    0.592269    0.146732
C      3.318947    0.877516   -1.134778
C      4.608577    1.180049   -1.581894
C      4.836436    1.488127   -2.927402
C      3.769499    1.498919   -3.826979
C      2.472557    1.198866   -3.396625
C      2.232587    0.879690   -2.037839
C      0.955194    0.551773   -1.536072
O     -0.043039    0.562812   -2.302757
O      1.442464    1.217703   -4.330948
O      6.119699    1.783962   -3.380951
C      1.866059   -0.002879    2.108360
C      0.847517    0.548614    2.907554
C      0.807197    0.284789    4.278623
C      1.787315   -0.525852    4.869460
C      2.807933   -1.068003    4.081713
C      2.854103   -0.799807    2.710737
O      1.758716   -0.792758    6.235358
O     -2.200697   -2.622440    0.625228
O     -4.803341   -2.201106    0.712491
O     -5.607931   -0.462063   -1.341073
H     -2.548658    1.683683   -3.027845
H     -4.063874    0.804268   -3.431936
H     -2.526446   -0.111842   -3.205367
H     -4.097303    1.478244   -1.098534
H     -3.855507   -1.512823   -1.692510
H     -4.431961   -0.197031    1.026983
H     -2.358046   -0.896769    1.760127
H     -1.471809   -1.067787   -1.163920
H      5.435545    1.172265   -0.880578
H      3.948986    1.737675   -4.867768
H      6.913400    1.788103   -2.754368
H      0.098005    1.201930    2.478066
H      0.019612    0.717984    4.882334
H      3.568102   -1.696003    4.532162
H      3.653335   -1.225673    2.116168
H      1.037217   -0.407359    6.833476
H     -2.424565   -3.041534    1.494391
H     -4.860673   -2.253269    1.701602
H     -6.013152   -1.353852   -1.514231
