15

C     -1.479088    1.538591   -0.300869
N     -2.521047    0.708693   -0.037163
N     -2.040089   -0.500539    0.236923
C     -0.704040   -0.441622    0.148662
C     -0.314113    0.811057   -0.184218
C      1.033135    1.104057   -0.331380
O      1.419821    2.262614   -0.640702
N      1.932935    0.093009   -0.129726
C      1.515171   -1.173499    0.208133
O      2.364709   -2.086573    0.388192
N      0.180344   -1.448218    0.350079
H     -1.571797    2.585772   -0.556099
H     -2.620791   -1.334425    0.476168
H      2.955050    0.286972   -0.234358
H     -0.150198   -2.405889    0.606356
