26

C     -3.245063   -0.960383    0.104886
C     -2.034336   -0.060132    0.130666
C     -2.230553    1.322024    0.263519
C     -1.148203    2.195743    0.311817
C      0.154472    1.702824    0.209455
C      0.397458    0.322696    0.045232
C     -0.712469   -0.572465    0.034524
C     -0.472435   -1.956905   -0.058763
C      0.825061   -2.451518   -0.136137
C      1.918288   -1.584191   -0.147754
C      1.720208   -0.191679   -0.070597
C      2.904846    0.694716   -0.149904
O      3.919885    0.459106    0.559362
O      2.921137    1.766097   -1.038708
O      3.208125   -2.106787   -0.257039
O     -1.379079    3.561379    0.466441
H     -4.192199   -0.382546    0.161148
H     -3.217028   -1.653385    0.971898
H     -3.261254   -1.543801   -0.839667
H     -3.231786    1.728368    0.342597
H      0.966144    2.411735    0.284610
H     -1.281871   -2.674118   -0.062867
H      0.981055   -3.521095   -0.200968
H      3.730894    2.370551   -1.109615
H      3.375596   -3.104270   -0.320397
H     -0.616892    4.228039    0.506261
