38

C      5.282090   -0.651944   -0.631363
C      6.041966    0.482671   -0.274679
C      5.438246    1.561417    0.394508
C      4.081635    1.463053    0.700829
C      3.343917    0.350262    0.376495
C      3.913803   -0.723767   -0.313064
C      2.047741    0.596622    0.801135
C      2.071432    1.874847    1.353924
N      3.317621    2.394190    1.296054
C      0.865419   -0.279894    0.707609
C     -0.446803    0.162012    0.650523
C     -1.238745   -0.972864    0.626966
C     -0.371108   -2.045620    0.694827
N      0.905951   -1.627467    0.741979
O     -0.744078   -3.385798    0.708605
C     -2.714165   -1.023428    0.612526
C     -3.571171   -0.212785   -0.002540
C     -3.321325    0.869611   -0.854402
C     -4.418440    1.561615   -1.393332
C     -5.734954    1.164568   -1.087952
C     -5.969761    0.065498   -0.246178
C     -4.871852   -0.613362    0.282748
N     -4.945867   -1.650282    1.055045
C     -3.581652   -1.967591    1.305353
O     -3.208319   -2.906924    2.055491
H      5.753177   -1.468272   -1.163289
H      7.092867    0.528166   -0.529087
H      6.008444    2.443518    0.655780
H      3.330116   -1.577632   -0.623764
H      1.225018    2.392113    1.786866
H      3.619074    3.334019    1.637180
H     -0.781759    1.190606    0.662715
H      1.746486   -2.236107    0.847749
H     -0.045364   -4.117108    0.758632
H     -2.316562    1.166570   -1.119365
H     -4.250840    2.402197   -2.054134
H     -6.571390    1.705171   -1.511493
H     -6.980846   -0.247882   -0.018649
