45

C      4.611727    2.395186    0.983355
C      4.381616    0.982857    0.524689
C      3.159059    0.545146    0.176374
C      1.886417    1.273426    0.175020
O      1.729439    2.472030    0.528791
C      0.787354    0.406288   -0.365105
C     -0.390245    0.181837    0.578444
C     -0.828386   -1.286787    0.253631
C     -1.855108   -1.380514   -0.938876
C     -2.958516   -0.359456   -0.830727
C     -2.655351    0.844329   -0.242392
C     -1.504960    1.168238    0.386857
C     -1.686535    2.470833    0.844314
N     -2.923667    2.915830    0.491708
C     -3.505647    1.897296   -0.172027
C     -4.783696    1.819209   -0.726229
C     -5.144518    0.608710   -1.365074
C     -4.230129   -0.476976   -1.429182
C      0.538025   -1.996855   -0.029184
N      1.399708   -0.908232   -0.509095
C      2.804243   -0.793516   -0.273702
O      3.612023   -1.748734   -0.424879
C      1.077693   -2.587964    1.297763
C      0.483282   -3.123007   -1.081981
O      5.464094    0.105230    0.460507
H      4.311962    3.107638    0.186154
H      5.684750    2.563842    1.210868
H      4.027176    2.594673    1.906085
H      0.460445    0.773997   -1.363148
H     -0.049733    0.231590    1.637205
H     -1.332375   -1.716746    1.148953
H     -2.295175   -2.400154   -0.972787
H     -1.340174   -1.181029   -1.901619
H     -0.974028    3.046671    1.419760
H     -3.340631    3.847955    0.709511
H     -5.472035    2.652461   -0.672369
H     -6.122717    0.513049   -1.817765
H     -4.508610   -1.387216   -1.944402
H      0.362516   -3.333496    1.707239
H      1.226678   -1.790094    2.055909
H      2.048469   -3.104385    1.145586
H     -0.291020   -3.871747   -0.810453
H      0.272082   -2.724123   -2.095034
H      1.463750   -3.642034   -1.142943
H      6.400748    0.394747    0.715073
