34

C     -3.324077   -1.670687    2.073950
O     -2.421778   -1.130603    1.113793
C     -2.440735    0.196337    0.653322
C     -1.488426    0.618221   -0.306976
C     -1.505442    1.942833   -0.761259
C     -2.449701    2.849613   -0.280008
C     -3.393893    2.444532    0.663502
C     -3.390928    1.124060    1.129093
O     -4.332366    3.361091    1.132695
N     -0.486488   -0.256927   -0.845997
N     -0.365051   -1.475983   -0.504724
C      0.654293   -2.311996   -1.059291
O      0.737468   -3.509395   -0.678141
C      1.651588   -1.783735   -2.052366
C      2.713631   -0.979211   -1.352741
C      2.674415    0.425602   -1.371439
C      3.650034    1.166436   -0.697457
C      4.668711    0.512603    0.000749
C      4.711844   -0.883656    0.028809
C      3.737841   -1.628842   -0.642913
H     -3.067201   -2.735165    2.253251
H     -3.237293   -1.118142    3.033734
H     -4.365872   -1.615820    1.691725
H     -0.778372    2.272610   -1.493192
H     -2.447944    3.869941   -0.641882
H     -4.131812    0.831493    1.860219
H     -5.032843    3.099784    1.816658
H      1.127790   -1.169163   -2.816086
H      2.126213   -2.630041   -2.595292
H      1.889925    0.947380   -1.905377
H      3.616061    2.248062   -0.715807
H      5.422798    1.088040    0.522217
H      5.499012   -1.388813    0.573297
H      3.778597   -2.710460   -0.608190
