10

C      0.199121    0.344681    0.140162
N      1.475222    0.573471    0.187822
O      2.347258    0.088492   -0.760670
C     -0.404178   -0.459252   -0.946709
N     -1.676603   -0.717234   -1.039883
O     -2.652797   -0.292770   -0.159275
H     -0.407917    0.764253    0.925813
H      3.336580    0.289055   -0.688243
H      0.243074   -0.861130   -1.714829
H     -2.459760    0.270434    0.656555
