19

C     -3.172714    0.958886    0.442626
N     -2.445892   -0.261088    0.113786
C     -1.014407   -0.295677    0.042138
N     -0.286706    0.840482    0.286317
C      1.063061    0.771155    0.209832
C      1.707597   -0.374386   -0.097245
C      0.992021   -1.535350   -0.347993
O      1.575631   -2.614133   -0.636142
N     -0.372329   -1.472496   -0.272441
N      3.026867   -0.153406   -0.101778
C      3.131936    1.162569    0.213637
N      1.932350    1.774559    0.415469
H     -2.951404    1.743917   -0.310816
H     -2.873554    1.315483    1.450720
H     -4.265020    0.759073    0.442300
H     -2.989797   -1.133253   -0.074296
H     -0.934135   -2.334324   -0.457235
H      3.796914   -0.830036   -0.300357
H      4.079581    1.678024    0.297138
