15

C     -1.972606    0.840648    0.308655
N     -0.954414   -0.181978    0.044932
C      0.445187    0.156620   -0.040217
N      0.901632    1.240474    0.509711
N      1.340741   -0.718906   -0.748292
N      2.742145   -0.587190   -0.717599
O      3.443560   -1.312687   -1.451273
O      3.362305    0.255476    0.176084
N     -1.318446   -1.538306   -0.038909
O     -2.501185   -1.910258    0.108683
H     -2.959554    0.525702   -0.089605
H     -1.706210    1.792789   -0.197584
H     -2.058667    1.009245    1.402452
H      0.306494    1.906596    1.048900
H      0.929016   -1.478225   -1.336329
