29

C     -2.090727   -0.143684   -1.752884
C     -1.451384   -0.515595   -0.403969
C     -1.344815    0.742175    0.478708
N     -0.191847    1.248741    0.811679
C      1.063143    0.684496    0.430362
C      1.095524   -0.489008   -0.308312
N     -0.132636   -1.113311   -0.679767
N      2.286569   -1.036958   -0.663812
C      3.460019   -0.448478   -0.307855
N      3.449320    0.706160    0.417621
C      2.273586    1.281527    0.793686
O      2.280171    2.347384    1.466613
N      4.697448   -1.045134   -0.695953
C     -2.577050    1.470784    0.951896
O     -2.690715    1.368727    2.345273
C     -2.307993   -1.578842    0.307603
H     -1.488074    0.642353   -2.256982
H     -3.127168    0.232336   -1.625837
H     -2.130261   -1.031634   -2.420125
H     -0.085451   -2.001554   -1.230033
H      4.353009    1.155483    0.690278
H      5.607494   -0.607177   -0.431073
H      4.704751   -1.929419   -1.251116
H     -2.522665    2.538719    0.639874
H     -3.496631    1.053397    0.497588
H     -2.068068    2.037654    2.733634
H     -1.869924   -1.819936    1.300098
H     -3.352858   -1.235571    0.455343
H     -2.342766   -2.513634   -0.292539
