24

C      1.984216    2.143857    0.056822
C      0.665523    2.016240    0.444524
C     -0.199285    0.919660    0.308559
C     -1.557143    1.220598    0.551638
C     -2.559132    0.269352    0.418690
C     -2.245788   -1.015891    0.006409
C     -0.905287   -1.355402   -0.275855
C      0.161297   -0.422282   -0.037217
C      1.496501   -0.927597   -0.085419
O      1.649183   -2.170235    0.082606
C      2.686726   -0.212892   -0.326275
C      2.852727    1.162028   -0.365020
O      3.863205   -0.935756   -0.566952
O     -0.613789   -2.601587   -0.846921
O     -3.292439   -1.936731   -0.099014
O     -3.886354    0.601520    0.690667
H      2.395474    3.146541    0.099349
H      0.237597    2.955907    0.781929
H     -1.859169    2.220171    0.846769
H      3.843041    1.513632   -0.633889
H      3.906365   -1.947086   -0.607736
H     -1.307729   -3.247357   -1.195357
H     -3.163534   -2.928463   -0.240628
H     -4.152207    1.531772    0.992320
