17

C     -1.004178   -0.534161   -0.189459
C     -0.647352    0.829996   -0.104724
N      0.646038    1.165150    0.143139
C      1.611554    0.224647    0.299482
N      1.295038   -1.094012    0.202565
C      0.015833   -1.490172   -0.035984
O     -0.248111   -2.720933   -0.110145
N      2.956706    0.627072    0.557998
N     -1.598578    1.882772   -0.296340
N     -2.361122   -0.957293   -0.398399
H      2.043389   -1.814862    0.318630
H      3.712722   -0.082903    0.678656
H      3.199057    1.640173    0.629659
H     -2.558727    1.720676   -0.666287
H     -1.303167    2.874175   -0.153791
H     -3.170401   -0.306900   -0.314765
H     -2.588701   -1.963426   -0.560236
