47

C      6.197038    1.275348    1.359498
C      5.072789    0.837671    0.410301
C      5.538401    0.953468   -1.050975
C      4.553645   -0.577853    0.779141
C      3.309508   -0.930188    0.000150
O      3.378278   -1.654370   -1.031499
O      2.083971   -0.397997    0.409367
C      0.868064   -0.635155   -0.293998
C     -0.287923    0.112241    0.383944
C     -0.065396    1.627375    0.315145
O     -1.123786    2.286700    0.953465
O     -1.497669   -0.194433   -0.289699
C     -2.233046   -1.172080    0.415407
N     -3.413441   -1.529663   -0.361698
C     -3.545181   -2.546431   -1.251515
N     -4.746463   -2.547253   -1.894390
C     -5.361913   -1.469104   -1.371616
C     -4.565669   -0.859042   -0.466973
N     -4.928374    0.273271    0.181473
C     -6.159688    0.805427   -0.090650
N     -6.992108    0.198699   -1.003982
C     -6.611039   -0.940030   -1.660307
O     -7.372014   -1.486554   -2.502672
N     -6.574864    1.996472    0.577518
N      5.601256   -1.596208    0.633521
H      5.846981    1.239429    2.413166
H      6.502540    2.319723    1.135120
H      7.083937    0.614769    1.252796
H      4.232212    1.554700    0.549096
H      4.729144    0.650422   -1.747316
H      6.434574    0.325386   -1.237819
H      5.801173    2.008354   -1.279836
H      4.256155   -0.552619    1.851662
H      0.654727   -1.725921   -0.292498
H      0.970600   -0.297788   -1.349159
H     -0.300863   -0.167575    1.466698
H      0.890709    1.892768    0.820100
H     -0.010993    1.951533   -0.748950
H     -0.934174    3.257295    0.870064
H     -1.620470   -2.086772    0.586163
H     -2.560442   -0.772368    1.401999
H     -2.770121   -3.276869   -1.444881
H     -7.929480    0.615370   -1.204634
H     -7.509824    2.418766    0.383630
H     -5.944604    2.459245    1.269492
H      5.243388   -2.498926    1.022972
H      5.810457   -1.759236   -0.377684
