24

C     -2.185649    1.045901   -0.146823
C     -1.171958    0.162221   -0.879127
N     -0.070307   -0.231654    0.013789
C      1.251251    0.386582   -0.152790
C      2.201574   -0.578346   -0.872107
N      3.523636    0.015669   -1.057413
N     -0.264528   -1.213298    1.012656
N     -1.352921   -1.872787    1.069040
O     -1.550765   -2.831937    2.035546
O      0.730560   -1.468588    1.931513
N     -1.578348    2.317217    0.236666
H     -2.581902    0.524305    0.752071
H     -3.039363    1.242758   -0.831606
H     -0.786215    0.710923   -1.766370
H     -1.679997   -0.746405   -1.267461
H      1.169983    1.327200   -0.740456
H      1.662226    0.663557    0.841759
H      2.305815   -1.515785   -0.284999
H      1.778866   -0.841437   -1.866030
H      3.423835    0.896013   -1.613576
H      3.912289    0.272927   -0.120892
H     -2.421595   -3.346590    2.066542
H     -2.339812    2.937453    0.595744
H     -0.936677    2.144099    1.044322
