20

C     -0.845579   -2.420229    0.318090
C      0.349987   -1.584485   -0.123713
N      0.037828   -0.153163   -0.025486
C      0.578593    0.628249    1.096802
C      1.769971    1.461937    0.639477
N     -0.770426    0.459288   -1.010840
N     -1.141259    1.671180   -0.882107
O     -1.928622    2.276088   -1.834700
O     -1.166691   -0.255968   -2.120378
H     -1.721466   -2.221135   -0.334138
H     -1.111037   -2.176824    1.368763
H     -0.590945   -3.499024    0.253420
H      0.627159   -1.840942   -1.168521
H      1.223330   -1.841754    0.514627
H      0.906200   -0.042919    1.920563
H     -0.209918    1.289232    1.515927
H      2.564780    0.798837    0.236769
H      1.462428    2.181300   -0.147966
H      2.179834    2.030477    1.500631
H     -2.214166    3.239853   -1.717221
