15

C      1.189852    0.463869    0.136451
N      2.520398    0.612079    0.061160
N      2.933911   -0.443951   -0.640059
N      1.937883   -1.248801   -1.010465
C      0.841166   -0.663093   -0.513041
N     -0.441217   -1.083309   -0.611073
C     -1.413505   -0.319745   -0.019840
N     -1.078846    0.837350    0.649935
C      0.223255    1.250025    0.740864
O      0.528082    2.307888    1.353353
N     -2.777964   -0.730878   -0.102002
H      3.935119   -0.622184   -0.874918
H     -1.829661    1.411087    1.096724
H     -3.533773   -0.163364    0.341587
H     -3.034701   -1.606973   -0.608676
