49

C     -2.437055    0.143004    3.101632
C     -1.658033   -0.933882    2.401226
C     -1.414093   -0.969158    1.068229
C     -0.604135   -2.140275    0.538712
N     -0.665883   -2.326870   -0.934041
C     -1.909141   -1.833475   -1.562994
C     -2.235662   -0.359216   -1.276422
C     -1.828503    0.160989    0.131348
C     -0.792121    1.338090    0.153131
C      0.648613    0.897814    0.328984
C      1.401278    0.081378   -0.522415
C      0.984012   -0.546082   -1.817115
C      0.590176   -2.027231   -1.673767
C      2.619379   -0.087500    0.110843
C      3.752326   -0.817681   -0.252829
C      4.850950   -0.807548    0.625530
C      4.793380   -0.080032    1.834527
C      3.636292    0.643192    2.175729
C      2.564706    0.617078    1.284241
N      1.374111    1.220040    1.428280
C     -0.969111    2.338203   -0.963693
O      0.007190    2.679626   -1.688162
O     -2.230783    2.904702   -1.169860
C     -2.490807    3.838202   -2.210645
H     -1.932192    1.123211    2.996140
H     -2.501375   -0.093760    4.184276
H     -3.470288    0.196767    2.700042
H     -1.290291   -1.745239    3.024835
H     -0.997905   -3.061454    1.030966
H      0.445551   -2.047006    0.892462
H     -0.739956   -3.367534   -1.053709
H     -1.876487   -1.992999   -2.664261
H     -2.763547   -2.445479   -1.189982
H     -1.865062    0.274067   -2.100473
H     -3.340282   -0.258425   -1.376876
H     -2.769379    0.598897    0.531810
H     -1.028568    1.927426    1.063837
H      1.857377   -0.500021   -2.502649
H      0.214215    0.045933   -2.329107
H      0.507837   -2.442418   -2.704242
H      1.437781   -2.577901   -1.205981
H      3.790108   -1.377459   -1.178055
H      5.745171   -1.362701    0.373917
H      5.643639   -0.080877    2.503999
H      3.580222    1.199615    3.102367
H      1.064279    1.800992    2.239355
H     -3.557989    4.138314   -2.172683
H     -1.857641    4.741043   -2.078769
H     -2.282304    3.373638   -3.197690
