50

C      2.067700   -0.926116   -1.074357
C      3.557751   -1.291261   -0.968499
C      4.463310   -0.050473   -0.908043
C      4.624894    0.629132   -2.273113
C      5.597551    1.762917   -2.179646
O      5.237297    2.864554   -1.683237
O      6.911158    1.587956   -2.606994
C      1.157594   -2.159452   -1.221574
C      1.196364   -3.150660   -0.039248
C      0.826831   -2.540840    1.321742
C     -0.551530   -1.957302    1.316910
O     -1.548837   -2.707221    1.499013
O     -0.716080   -0.593874    1.048278
C     -1.980454    0.066459    1.012136
C     -2.393746    0.487399    2.447364
C     -3.250470    1.774331    2.424593
C     -4.083415    1.842623    1.132785
C     -3.113084    1.821481   -0.089848
O     -1.856191    1.203781    0.176546
C     -3.734813    1.247137   -1.373017
O     -4.864957    1.992730   -1.732650
O     -4.983361    0.762065    1.080446
O     -4.078196    1.836483    3.558916
O     -3.115749   -0.555128    3.053768
H      1.906843   -0.292354   -1.971362
H      1.760128   -0.323460   -0.194220
H      3.856262   -1.938458   -1.822268
H      3.721356   -1.866975   -0.033007
H      5.466450   -0.371878   -0.550659
H      4.061883    0.673928   -0.167107
H      3.651232    1.023890   -2.628364
H      4.993609   -0.106057   -3.018815
H      7.586290    2.339802   -2.529825
H      1.443048   -2.706119   -2.147018
H      0.111941   -1.811997   -1.369757
H      2.204248   -3.609961    0.031327
H      0.491173   -3.981473   -0.258896
H      1.564083   -1.764385    1.613798
H      0.876965   -3.338392    2.094529
H     -2.734398   -0.630974    0.578359
H     -1.477826    0.712366    3.044767
H     -2.554509    2.647627    2.434653
H     -4.652577    2.801522    1.111778
H     -2.878652    2.886623   -0.313679
H     -2.979116    1.298569   -2.190417
H     -4.017755    0.182600   -1.230332
H     -5.175863    1.620953   -2.598405
H     -5.748098    0.993315    1.670915
H     -4.392206    2.775475    3.632287
H     -2.454080   -1.160909    3.481496
