28

C     -4.046485    0.202854    0.213922
C     -3.277776    0.220948   -1.106731
C     -2.218014   -0.891064   -1.202015
C     -1.100823   -0.811383   -0.146080
C     -0.255376    0.462929   -0.266510
C      0.919488    0.399920    0.662270
O      0.828895    0.906692    1.813506
N      2.120572   -0.273502    0.259058
C      3.291560   -0.373726    1.132284
C      3.966331    0.959040    1.227992
O      4.127078    1.507835    2.350912
O      4.421506    1.590650    0.074456
O      4.201844   -1.301841    0.606827
H     -4.894548    0.917338    0.156852
H     -3.390627    0.515203    1.052871
H     -4.451430   -0.811678    0.415119
H     -4.006078    0.073767   -1.933477
H     -2.814569    1.218339   -1.257825
H     -2.723362   -1.877082   -1.108480
H     -1.759678   -0.858071   -2.214475
H     -0.440347   -1.695103   -0.289483
H     -1.529140   -0.888500    0.875913
H     -0.867785    1.353484   -0.010504
H      0.108933    0.581291   -1.309921
H      2.153769   -0.717607   -0.686879
H      2.971812   -0.706608    2.147542
H      4.880474    2.492405    0.122657
H      3.783775   -2.196529    0.710138
