48

C     -2.523448   -1.329374    2.735623
C     -1.920165   -1.917203    1.491970
C     -1.634438   -1.215718    0.369467
C     -1.019159   -1.974167   -0.790767
N     -1.009989   -1.205766   -2.046926
C     -2.146992   -0.300534   -2.252571
C     -2.274466    0.756910   -1.147232
C     -1.818446    0.299560    0.272925
C     -0.589147    1.066787    0.875583
C      0.750902    0.382999    0.666777
C      1.403298    0.116622   -0.544836
C      0.942186    0.412576   -1.940420
C      0.295541   -0.808597   -2.612279
C      2.551540   -0.573715   -0.200177
C      3.567457   -1.119940   -0.986908
C      4.615575   -1.792973   -0.333425
C      4.623799   -1.908186    1.073961
C      3.583167   -1.352305    1.839643
C      2.559809   -0.688491    1.164419
N      1.473895   -0.111623    1.702096
C     -0.555574    2.539566    0.545984
O      0.483589    3.072457    0.065707
O     -1.689420    3.315892    0.804841
C     -1.751481    4.704944    0.506575
H     -3.518136   -0.890501    2.512509
H     -2.662267   -2.129925    3.492008
H     -1.853466   -0.560855    3.169138
H     -1.721899   -2.986259    1.507858
H      0.004165   -2.307897   -0.512836
H     -1.616964   -2.894006   -0.970148
H     -2.075279    0.198048   -3.244048
H     -3.077109   -0.910236   -2.273425
H     -1.779451    1.687735   -1.477301
H     -3.350043    1.040346   -1.098898
H     -2.677522    0.574823    0.923569
H     -0.747914    1.057236    1.974672
H      1.831243    0.702235   -2.540380
H      0.280950    1.292302   -1.968460
H      0.996542   -1.671090   -2.575954
H      0.160587   -0.578346   -3.691271
H      3.554119   -1.034109   -2.065465
H      5.419404   -2.227306   -0.913385
H      5.433858   -2.430144    1.566407
H      3.576743   -1.440846    2.918317
H      1.227593   -0.074203    2.716652
H     -0.969861    5.251455    1.075611
H     -2.747963    5.095877    0.797386
H     -1.605361    4.865944   -0.582584
