26

C     -2.582780   -0.928102   -1.771700
C     -1.739705   -0.406543   -0.589219
C     -1.923314   -1.369684    0.600303
C     -2.239495    1.004593   -0.221496
N     -0.320979   -0.359095   -0.997982
C      0.776616    0.072140   -0.174383
N      0.579220    0.488090    1.103289
C      1.626257    0.891149    1.864928
O      1.428475    1.274273    3.047914
N      2.883817    0.880566    1.350512
C      3.088834    0.465248    0.071738
N      2.035322    0.063239   -0.684379
N      4.405169    0.449445   -0.480369
H     -3.660185   -0.978282   -1.502164
H     -2.248961   -1.946360   -2.067158
H     -2.473831   -0.257723   -2.651645
H     -1.491612   -2.364802    0.359115
H     -1.430429   -0.988259    1.516860
H     -3.002089   -1.500938    0.833918
H     -1.746960    1.388572    0.694183
H     -2.034688    1.713380   -1.052442
H     -3.334299    0.993698   -0.029551
H     -0.072029   -0.661716   -1.968073
H      3.690787    1.191343    1.937902
H      5.225903    0.755440    0.087907
H      4.560958    0.130328   -1.462268
