25

C     -3.520569    1.604802   -0.819775
O     -3.459255    0.329046   -0.190261
C     -2.269074   -0.335575    0.141952
C     -2.358332   -1.584807    0.760708
C     -1.191387   -2.276979    1.092938
N      0.022317   -1.730432    0.822564
C      0.157517   -0.509411    0.234414
C     -0.998997    0.206944   -0.128329
C      1.523616    0.001710   -0.029735
C      1.797263    1.373010   -0.197364
C      3.109652    1.788611   -0.433019
C      4.138190    0.848663   -0.492522
C      3.838499   -0.501104   -0.307762
N      2.555228   -0.888396   -0.080441
C     -1.265210   -3.567848    1.720593
N     -1.324529   -4.607203    2.225949
H     -4.583513    1.890947   -0.956173
H     -3.033338    1.562463   -1.816782
H     -3.025429    2.368792   -0.183791
H     -3.330772   -2.013288    0.973433
H     -0.917332    1.156028   -0.635922
H      1.021552    2.122102   -0.122884
H      3.330095    2.840518   -0.561511
H      5.157935    1.163436   -0.672637
H      4.625874   -1.242030   -0.343645
