31

C     -3.491997    0.311093    1.383636
C     -3.501352    0.498222   -0.133854
C     -2.698674   -0.588823   -0.867424
C     -1.221439   -0.477338   -0.551021
N     -0.508273    0.536378   -1.106601
C      0.808008    0.708789   -0.833678
C      1.460540   -0.176016    0.040185
N      2.778808    0.022403    0.318191
C      3.474277    1.051002   -0.235648
N      2.852743    1.912172   -1.089559
C      1.535614    1.761421   -1.397378
O      0.977583    2.571260   -2.186531
N      4.855555    1.222002    0.081672
N      0.764797   -1.217606    0.601278
C     -0.576608   -1.363100    0.337817
O     -1.239365   -2.283507    0.892862
C      1.438666   -2.127230    1.544013
O     -2.893820   -0.436972   -2.249349
H     -4.144559    1.075952    1.854765
H     -2.464487    0.433409    1.786180
H     -3.875712   -0.696057    1.652230
H     -4.556657    0.460943   -0.482149
H     -3.099512    1.504882   -0.383229
H     -3.099452   -1.583021   -0.561234
H      3.392693    2.700924   -1.512954
H      5.405884    2.005873   -0.334064
H      5.331398    0.561725    0.735775
H      1.439170   -1.677341    2.559117
H      0.938205   -3.117882    1.586344
H      2.486100   -2.322031    1.229062
H     -2.568132   -1.271527   -2.678454
