46

C     -5.229856   -1.524953   -1.969745
C     -4.790072   -0.758054   -0.739251
C     -5.756586   -0.578588    0.245820
C     -5.429496   -0.009260    1.458655
O     -6.365280    0.238289    2.265424
C     -4.083176    0.308362    1.744913
C     -3.706692    0.769590    2.973324
O     -4.502961    0.734124    4.121554
C     -3.094691    0.169264    0.708594
C     -3.454714   -0.260419   -0.549408
C     -2.627821   -0.144066   -1.702181
O     -3.183424    0.009303   -2.823148
O     -1.314321   -0.236553   -1.748331
C     -0.403124   -0.186306   -0.802718
C      0.927240   -0.518830   -1.163252
C      2.032187   -0.145893   -0.317662
C      3.339739   -0.314431   -0.714710
C      4.488544   -0.189069    0.214854
C      5.453188    0.738942    0.084204
C      5.409669    1.779761   -1.006572
C      6.562661    0.771024    1.098852
O      3.660174   -0.625447   -2.036263
C      1.721685    0.457627    0.940861
O      2.621828    0.851246    1.731396
C      0.406147    0.662575    1.343335
C     -0.673993    0.327204    0.541469
O     -1.860392    0.477088    1.090776
C      1.114183   -1.298957   -2.454187
H     -5.587130   -0.820335   -2.749727
H     -6.059966   -2.224559   -1.731539
H     -4.400785   -2.149547   -2.364600
H     -6.783340   -0.879328    0.065132
H     -2.717145    1.179578    3.126606
H     -5.256094    0.075694    4.265951
H      4.517154   -0.867797    1.060167
H      4.428476    2.300318   -0.996538
H      6.200911    2.545659   -0.868726
H      5.566173    1.305629   -1.996489
H      6.140449    0.938195    2.112547
H      7.108563   -0.196150    1.087811
H      7.290967    1.581130    0.886383
H      4.609143   -0.833929   -2.323487
H      0.217469    1.085581    2.324784
H      1.475304   -0.624875   -3.258998
H      1.815221   -2.145235   -2.297794
H      0.173985   -1.773602   -2.805050
