42

C     -5.144155    1.115936   -0.549098
C     -5.523528   -0.040446    0.342756
C     -4.690563   -1.085057    0.551325
C     -3.317118   -1.196081   -0.053513
N     -2.429624   -0.224342    0.573128
C     -1.170517    0.013307    0.332134
C     -0.380714   -0.661769   -0.621601
C      0.926791   -0.312599   -0.787387
N      1.516620   -1.076969   -1.724668
C      0.510697   -1.897330   -2.115203
N     -0.655689   -1.673677   -1.465018
N      1.519230    0.679381   -0.066319
C      0.759309    1.326194    0.871912
N     -0.554930    0.994244    1.053485
C      2.939230    1.012001   -0.235261
C      3.801863    0.132663    0.680942
C      5.311127    0.402941    0.502369
C      5.671550    1.796437    0.949016
O      5.536669    2.136552    2.154494
O      6.147776    2.719150    0.026177
N      6.101279   -0.585989    1.245406
C     -6.883385   -0.021578    0.991310
H     -4.944673    0.755059   -1.579668
H     -5.966572    1.860703   -0.600320
H     -4.243232    1.627771   -0.151908
H     -5.014268   -1.905416    1.186708
H     -3.379639   -1.017148   -1.147519
H     -2.935865   -2.220310    0.145070
H      0.631210   -2.661133   -2.872073
H     -1.534692   -2.207147   -1.619775
H      1.191939    2.108095    1.483650
H      3.243265    0.866326   -1.295350
H      3.106244    2.085990    0.001401
H      3.595633   -0.933010    0.439304
H      3.508366    0.300731    1.740665
H      5.559802    0.304525   -0.578889
H      5.864026   -0.559087    2.264292
H      7.121816   -0.389508    1.124003
H      5.907728   -1.544861    0.874832
H     -7.667442   -0.028586    0.205417
H     -7.044744   -0.896985    1.656391
H     -6.990819    0.901020    1.599475
