41

C      5.559724    0.007880    1.885161
C      4.750613    0.183003    0.597104
C      5.010730    1.543626    0.016470
O      4.477265    2.565951    0.526248
O      5.872294    1.678769   -1.067556
N      3.317586    0.006862    0.861045
C      2.318232   -0.137103   -0.163681
N      1.007712   -0.265646    0.211825
C      0.070000   -0.402621   -0.754733
C      0.375373   -0.406431   -2.069012
C      1.694867   -0.275245   -2.471793
O      2.005084   -0.272202   -3.693037
N      2.653375   -0.145473   -1.503546
N     -0.739857   -0.517956   -2.815274
C     -1.722775   -0.582884   -1.874697
N     -1.253566   -0.526247   -0.600450
C     -2.025662   -0.473929    0.642375
C     -2.587380    0.931341    0.865740
C     -4.072179    0.742000    0.699906
C     -4.253755   -0.742867    0.997291
O     -3.084849   -1.409226    0.582925
C     -5.486545   -1.338144    0.302617
O     -5.359071   -1.286725   -1.093745
O     -4.824884    1.566821    1.557042
H      6.645556    0.112650    1.673125
H      5.264911    0.767399    2.641296
H      5.382168   -1.004225    2.307195
H      5.091019   -0.600338   -0.114631
H      6.067403    2.589622   -1.465508
H      2.986629   -0.010574    1.853190
H      3.646677   -0.048753   -1.806905
H     -2.773118   -0.652461   -2.123588
H     -1.366760   -0.748783    1.496135
H     -2.194046    1.674204    0.136662
H     -2.336794    1.273182    1.894513
H     -4.345888    0.968330   -0.354572
H     -4.368358   -0.900626    2.093989
H     -6.389690   -0.764178    0.600735
H     -5.635408   -2.389505    0.640316
H     -4.803453   -2.065400   -1.359066
H     -4.573182    1.355904    2.494168
