35

C     -3.886915   -2.165331   -0.013902
N     -2.636791   -1.440338    0.185429
C     -1.382864   -1.881245   -0.097426
N     -0.437493   -0.940566    0.160465
C     -1.140514    0.122959    0.592286
C     -2.463931   -0.173224    0.611954
C     -3.386022    0.798185    0.991741
O     -4.623107    0.561090    1.011859
N     -2.906177    2.030423    1.342229
C     -1.560926    2.304481    1.309999
N     -0.664671    1.346377    0.926583
C      0.996304   -1.037799   -0.118210
C      1.327274   -0.422380   -1.473260
C      2.750587    0.049383   -1.283475
C      2.829004    0.285036    0.237364
O      1.734928   -0.353703    0.870071
C      2.802098    1.777763    0.587194
O      3.967611    2.400257    0.121271
O      3.695456   -0.908079   -1.705075
O      1.165480   -1.310219   -2.555345
H     -3.682633   -3.215128   -0.314058
H     -4.481119   -1.672845   -0.811888
H     -4.470171   -2.174991    0.930595
H     -1.163663   -2.860616   -0.504841
H     -3.570756    2.781880    1.634746
H     -1.203792    3.288092    1.585334
H      1.301433   -2.108055   -0.086355
H      0.681461    0.467717   -1.646892
H      2.920732    0.981422   -1.866846
H      3.770634   -0.143925    0.647168
H      1.906565    2.257532    0.131816
H      2.740501    1.890848    1.692803
H      3.884732    3.358137    0.367145
H      3.597654   -1.716106   -1.135559
H      1.589090   -2.177032   -2.324921
