20

C      2.884860    0.586516    0.253400
C      1.731193   -0.249356   -0.278263
O      0.514565    0.273926    0.213114
C     -0.578189   -0.549551   -0.159822
C     -0.930265   -1.498587    0.989295
C     -1.763164    0.328682   -0.481119
O     -2.388425    0.141877   -1.514087
C     -2.212826    1.414400    0.453886
H      2.898485    0.551979    1.363498
H      3.846935    0.187183   -0.131494
H      2.774212    1.641092   -0.077278
H      1.749408   -0.204590   -1.390621
H      1.879885   -1.301637    0.054388
H     -0.364692   -1.171013   -1.065002
H     -0.086486   -2.193735    1.181288
H     -1.136442   -0.929711    1.920835
H     -1.825379   -2.103034    0.728094
H     -3.253080    1.212375    0.784570
H     -2.180891    2.392356   -0.070355
H     -1.559705    1.470827    1.349697
