18

C     -1.528413    0.926499    0.024741
C     -2.510122   -0.211327   -0.093695
C     -2.121830   -1.486624   -0.180595
O     -0.768290   -1.836803   -0.166052
C      0.242733   -0.879069   -0.060669
C      1.583080   -1.280312   -0.050490
C      2.599099   -0.325924    0.054790
C      2.277664    1.031206    0.150096
C      0.939464    1.437239    0.140353
C     -0.085749    0.484963    0.034953
H     -1.743424    1.479071    0.963987
H     -1.688178    1.618101   -0.829606
H     -3.568051    0.018908   -0.108431
H     -2.866339   -2.267470   -0.264056
H      1.835979   -2.330305   -0.124096
H      3.635447   -0.637984    0.062520
H      3.065668    1.768694    0.231538
H      0.701264    2.491138    0.214714
