30

C     -5.230720   -0.326863   -0.155373
C     -5.037308    0.790230   -0.973565
C     -3.757588    1.329139   -1.135470
C     -2.665533    0.750411   -0.478479
C     -2.854359   -0.375509    0.348826
C     -4.145811   -0.911090    0.506349
C     -1.729655   -0.914917    0.994160
O     -1.843220   -1.914054    1.756118
N     -0.504192   -0.352802    0.802671
C     -0.341103    0.725395   -0.019701
N     -1.422556    1.271203   -0.637155
C      0.986621    1.344952   -0.218958
O      1.042568    2.574428   -0.493605
C      2.247935    0.573354   -0.120559
C      2.311332   -0.767505   -0.542165
C      3.512849   -1.478018   -0.463329
C      4.666851   -0.857965    0.024474
C      4.616521    0.481736    0.430618
C      3.416491    1.195126    0.352792
O      5.856618   -1.578726    0.098218
H     -6.223562   -0.740212   -0.033111
H     -5.880426    1.238778   -1.482911
H     -3.616895    2.194315   -1.771619
H     -4.318223   -1.774785    1.136701
H      0.314102   -0.748204    1.318744
H      1.436452   -1.261724   -0.945622
H      3.548462   -2.510280   -0.787753
H      5.506291    0.971372    0.805548
H      3.397946    2.229671    0.673036
H      6.710110   -1.157457    0.446031
