46

C     -3.266270   -2.428085    0.883584
C     -2.990466   -1.750181   -0.437049
C     -1.920120   -0.946212   -0.624996
C     -0.896728   -0.605471    0.433128
C     -0.974052    0.860866    0.768941
C     -0.352254    1.891280    0.017632
C     -0.525315    3.217226    0.370588
C     -1.305338    3.604738    1.456029
C     -1.936540    2.606991    2.206117
C     -1.778501    1.252239    1.864630
N      0.147055    4.042177   -0.446846
C      0.770226    3.255958   -1.343819
C      0.487944    1.915657   -1.104633
C      1.105860    0.795381   -1.898719
C      2.551379    0.502327   -1.460563
C      2.641158   -0.005623   -0.045675
O      2.397914    0.696872    0.971578
C      3.115158   -1.391624   -0.015310
C      3.242754   -2.214332    1.039411
C      2.884506   -1.785599    2.429851
O      3.714863   -3.509358    0.850760
C      3.392739   -1.702156   -1.407155
O      3.841215   -2.797842   -1.837053
N      3.090424   -0.601602   -2.253075
C     -3.934398   -1.967774   -1.591842
H     -3.390547   -1.667018    1.681992
H     -4.195632   -3.033321    0.845330
H     -2.428378   -3.109438    1.141598
H     -1.793082   -0.477691   -1.597285
H      0.111804   -0.886252    0.090318
H     -1.035119   -1.203951    1.356469
H     -1.423803    4.649414    1.713644
H     -2.554042    2.880337    3.051888
H     -2.290748    0.506277    2.459380
H      0.190984    5.084326   -0.394972
H      1.412753    3.633253   -2.129046
H      0.490587   -0.119538   -1.884217
H      1.130200    1.109327   -2.964943
H      3.193840    1.400878   -1.586265
H      3.023415   -2.630844    3.136180
H      3.540316   -0.949388    2.751395
H      1.820522   -1.468930    2.469687
H      3.214986   -0.592837   -3.290009
H     -4.770402   -2.645006   -1.319502
H     -4.365410   -0.995522   -1.912171
H     -3.385458   -2.419931   -2.444984
