19

C      2.103751    0.883898   -0.172837
C      1.125322   -0.003826    0.048859
C     -0.282671    0.404841    0.304012
C     -1.317669   -0.390466   -0.082559
C     -1.124636   -1.539659   -1.003800
O     -0.298979   -1.466512   -1.952771
O     -1.881209   -2.700119   -0.859498
N     -2.650684   -0.149465    0.394849
C     -0.518192    1.664712    1.052969
O     -1.483526    2.418579    0.757820
O      0.357718    2.049252    2.061350
C      3.493372    0.476898   -0.431720
O      3.832109   -0.736705   -0.443135
H      1.884676    1.944232   -0.184537
H      1.356503   -1.062290    0.019761
H     -2.529211   -2.820931   -0.090653
H     -3.467700   -0.611096   -0.063045
H     -2.839864    0.401772    1.260603
H      4.240889    1.236884   -0.615668
