44

C     -4.730807    1.120095    0.178866
C     -3.996673   -0.208182    0.313463
N     -2.604016    0.072811   -0.005106
C     -2.406779    1.433984   -0.479447
C     -3.808681    2.010450   -0.661640
N     -3.870125    3.418391   -0.262883
C     -1.502349   -0.841644    0.176424
C     -1.692534   -2.203815    0.481244
C     -0.581102   -3.033251    0.642462
C      0.717963   -2.519157    0.496968
C      1.859817   -3.322659    0.662524
O      1.730429   -4.545744    0.945810
C      3.142644   -2.756410    0.513636
C      3.239432   -1.390277    0.195104
N      2.124637   -0.619476    0.025995
C      0.873238   -1.155274    0.178417
N     -0.232600   -0.372545    0.036798
C      2.292227    0.773028   -0.304212
C      1.820700    1.280931   -1.528849
C      1.977528    2.637009   -1.833327
C      2.608948    3.491949   -0.925213
C      3.088136    2.991626    0.288838
C      2.932828    1.637297    0.598723
F      2.759656    4.805872   -1.223592
F      1.223576    0.459814   -2.429019
C      4.383317   -3.560730    0.682368
O      5.514266   -3.020422    0.542899
O      4.319861   -4.916079    0.995593
F     -2.929104   -2.744491    0.609821
H     -5.719008    0.987401   -0.312816
H     -4.886624    1.555341    1.190800
H     -4.404844   -0.944867   -0.411861
H     -4.089620   -0.593135    1.352272
H     -1.822191    2.004705    0.275315
H     -1.860071    1.431005   -1.447868
H     -4.097556    1.919298   -1.733245
H     -3.657572    3.504711    0.758126
H     -4.849738    3.756425   -0.404787
H     -0.741293   -4.078067    0.879503
H      4.218179   -0.939549    0.070804
H      1.612180    3.024722   -2.775635
H      3.578538    3.652938    0.991516
H      3.301189    1.260232    1.544510
H      5.164001   -5.464260    1.110698
