41

C     -4.483523   -1.238862    2.058798
C     -5.753896   -0.770302    1.660862
C     -5.903799   -0.053552    0.461039
C     -4.762907    0.185140   -0.303992
C     -3.520765   -0.249635    0.090882
C     -3.349085   -0.986708    1.266340
C     -2.632219    0.136449   -0.901443
C     -3.404060    0.780997   -1.864659
N     -4.701957    0.813208   -1.490016
C     -1.172616   -0.065920   -0.967089
C     -0.312121   -0.168863    0.111325
C      0.956223   -0.305360   -0.418958
C      0.817766   -0.282674   -1.801707
N     -0.480908   -0.123014   -2.122733
C      1.874615   -0.480533   -2.810149
O      3.026150   -0.860601   -2.472604
O      1.593283   -0.277543   -4.155173
C      2.196140   -0.381169    0.371869
C      2.462789   -1.233786    1.441558
N      3.675701   -0.979993    1.979964
C      4.179077    0.043693    1.267874
C      5.398535    0.689150    1.468312
C      5.713130    1.776323    0.633087
C      4.807546    2.197345   -0.365426
C      3.581632    1.531210   -0.543083
C      3.304909    0.441417    0.284374
O      1.617913   -2.234150    1.915599
H     -4.382959   -1.805273    2.975493
H     -6.619917   -0.974329    2.276947
H     -6.876591    0.294853    0.138891
H     -2.387327   -1.380733    1.559059
H     -3.034119    1.215731   -2.784158
H     -5.495367    1.234686   -2.022351
H     -0.559002   -0.087053    1.160554
H     -0.880641   -0.081960   -3.087013
H      4.119892   -1.467906    2.789463
H      6.079304    0.370071    2.246889
H      6.651522    2.299491    0.762988
H      5.055593    3.042268   -0.994478
H      2.877572    1.860919   -1.295622
H      0.724487   -2.423032    1.478490
