20

C      2.409039    0.857013   -0.453966
C      0.942703    0.750209   -0.121567
C      0.276577   -0.503195   -0.087467
C     -1.111581   -0.547254    0.193461
C     -1.795930    0.648387    0.489726
C     -1.123790    1.867764    0.493556
C      0.233572    1.920826    0.189311
N     -1.802273   -1.810193    0.167412
C     -3.045858   -1.953127    0.402583
O     -4.254092   -2.092252    0.631033
C      1.024653   -1.775916   -0.416740
H      2.636477    0.284885   -1.377876
H      2.712224    1.910967   -0.631393
H      3.012566    0.457671    0.387739
H     -2.853999    0.642290    0.717373
H     -1.660295    2.778781    0.726076
H      0.731337    2.882834    0.190813
H      2.039987   -1.765031    0.030537
H      0.517239   -2.675548   -0.012132
H      1.111444   -1.879109   -1.518480
