32

C     -3.275948    0.557422    1.011457
C     -2.205068   -0.043691    0.083677
C     -2.563287   -1.485962   -0.219113
O     -2.598392   -2.303709    0.688702
C     -2.869081   -1.940416   -1.616324
N     -0.851677    0.023580    0.680778
C     -0.299741    1.391499    0.668544
C      1.117553    1.438234    1.263486
C      2.121888    0.729666    0.390913
C      2.553348   -0.569051    0.710933
C      3.466616   -1.231316   -0.115310
C      3.952436   -0.604894   -1.266276
C      3.524270    0.684407   -1.594187
C      2.610685    1.350138   -0.771081
H     -4.288653    0.380102    0.589280
H     -3.147911    1.654798    1.105318
H     -3.227142    0.098432    2.022057
H     -2.220764    0.534781   -0.867570
H     -3.897698   -2.356179   -1.653509
H     -2.799118   -1.104551   -2.342954
H     -2.147849   -2.729713   -1.914958
H     -0.874079   -0.337892    1.663785
H     -0.215157   -0.590154    0.119848
H     -0.934797    2.065143    1.281750
H     -0.277473    1.792742   -0.369738
H      1.108456    1.001463    2.286169
H      1.424090    2.501310    1.374053
H      2.178847   -1.069705    1.595200
H      3.795808   -2.231425    0.135435
H      4.658646   -1.119302   -1.905097
H      3.898685    1.167317   -2.487533
H      2.282504    2.346925   -1.038786
