44

C      5.890818    0.803731   -0.148936
C      5.913911    1.736484    0.911631
C      4.717757    2.302707    1.389083
C      3.524343    1.910814    0.784114
C      3.501669    1.002178   -0.243066
C      4.671414    0.426831   -0.740638
C      2.178112    0.840692   -0.604172
C      1.453187    1.678694    0.238265
N      2.282845    2.329488    1.085076
C      1.617752   -0.070247   -1.658519
C      1.687502   -1.551642   -1.248765
C      0.858520   -1.892134    0.000025
C     -0.606359   -1.641164   -0.212961
O     -1.243594   -2.354898   -1.034560
N     -1.270448   -0.589667    0.503049
C     -2.671179   -0.237071    0.263053
C     -3.575812   -1.051605    1.209507
C     -5.077680   -0.852050    0.948250
C     -5.492426   -1.414286   -0.380373
O     -5.650486   -2.657406   -0.511101
N     -5.678801   -0.555664   -1.505522
C     -2.852389    1.242971    0.463667
O     -3.157335    1.980595   -0.510284
O     -2.664040    1.809909    1.718777
H      6.817489    0.376762   -0.509789
H      6.858025    2.018863    1.358918
H      4.725463    3.019457    2.199964
H      4.647976   -0.282733   -1.557239
H      0.379126    1.807772    0.229278
H      2.009876    3.017631    1.821529
H      2.201319    0.069633   -2.593581
H      0.567337    0.214065   -1.884051
H      1.335567   -2.173622   -2.100599
H      2.745681   -1.832784   -1.059450
H      1.231879   -1.313918    0.871926
H      1.000026   -2.967844    0.239829
H     -0.769828   -0.141102    1.303866
H     -2.931968   -0.480923   -0.790554
H     -3.333783   -2.132674    1.107228
H     -3.356004   -0.770207    2.262851
H     -5.649388   -1.372993    1.746438
H     -5.342980    0.224948    1.010892
H     -5.952574   -0.953223   -2.431310
H     -5.540521    0.475631   -1.419280
