48

C     -3.001934   -0.161086   -1.710499
C     -4.441015   -0.433642   -1.282628
C     -4.480939   -1.289747   -0.043716
C     -4.415505   -0.812479    1.211747
C     -4.366937    0.655569    1.553140
C     -3.880214    0.862233    2.965010
C     -2.584226    0.847096    3.334297
C     -1.427761    0.651138    2.385838
C     -1.293344   -0.791854    1.970037
C     -0.427176   -1.207372    1.031398
C      0.507748   -0.271958    0.301479
C      1.384592   -1.012633   -0.716680
C      2.374489   -1.930399   -0.039564
C      3.579249   -1.547474    0.423360
C      4.158863   -0.166434    0.254792
C      4.883671   -0.043067   -1.093210
C      5.450288    1.364257   -1.318064
C      4.359977    2.369575   -1.531402
O      4.072598    3.193808   -0.622535
O      3.646029    2.374255   -2.725568
H     -2.999522    0.434235   -2.647589
H     -2.461197    0.410278   -0.929519
H     -2.466494   -1.117143   -1.895054
H     -4.986769    0.521513   -1.128020
H     -4.954085   -0.978299   -2.103900
H     -4.549978   -2.365327   -0.179415
H     -4.450011   -1.531761    2.026277
H     -5.396571    1.062825    1.467547
H     -3.730748    1.225524    0.848225
H     -4.628571    1.032594    3.733716
H     -2.350924    1.011598    4.382382
H     -1.548285    1.310820    1.501875
H     -0.492165    0.954048    2.902496
H     -1.915455   -1.540444    2.453331
H     -0.404430   -2.268280    0.796699
H     -0.091537    0.485764   -0.245918
H      1.146560    0.260814    1.037343
H      1.906263   -0.277223   -1.363305
H      0.735179   -1.616483   -1.387287
H      2.077088   -2.964667    0.107669
H      4.194144   -2.290487    0.923116
H      4.891304    0.006491    1.072622
H      3.369629    0.606089    0.355011
H      5.727193   -0.767709   -1.112477
H      4.201001   -0.306317   -1.930083
H      6.086136    1.661878   -0.455479
H      6.096697    1.351285   -2.221573
H      2.897095    3.038600   -2.880313
