21

C     -2.129968    1.470154    0.129133
C     -0.734539    1.135295   -0.399495
C     -0.284988   -0.290458    0.000586
C      0.960496   -0.760275   -0.800549
C      2.213014    0.085982   -0.542104
O      1.253272   -2.099938   -0.494819
C     -0.070361   -0.425330    1.492755
O      0.461142    0.508682    2.150827
O     -0.419066   -1.602105    2.149833
H     -2.419169    2.488136   -0.207123
H     -2.143321    1.450119    1.239180
H     -2.875625    0.744667   -0.259976
H     -0.017842    1.895357   -0.021070
H     -0.760157    1.217513   -1.508024
H     -1.114837   -0.976756   -0.281022
H      0.731657   -0.680569   -1.889525
H      2.047094    1.142233   -0.837731
H      3.055444   -0.306351   -1.150481
H      2.510569    0.042154    0.526094
H      0.566173   -2.656198   -0.947105
H     -0.828988   -2.382313    1.650616
