46

C     -2.831919   -1.280540   -1.527671
C     -3.012945   -0.008901   -0.652055
C     -2.442787    1.232337   -1.364159
C     -0.892596    1.163321   -1.444335
C     -0.201016    0.852567   -0.075399
C     -0.866983   -0.355080    0.653702
C     -2.375997   -0.077802    0.742761
C     -3.297278   -0.983901    1.561180
C     -4.702448   -0.588863    1.071700
C     -4.452610    0.047314   -0.262696
O     -5.337457    0.500186   -0.972483
C     -0.219946   -0.515224    2.033473
C      1.249108   -0.917020    1.874271
C      1.988006   -0.124225    0.815505
C      3.385658   -0.244008    0.769325
C      4.139012    0.430573   -0.205801
C      3.476799    1.235325   -1.143615
C      2.085042    1.351302   -1.113560
C      1.312414    0.650596   -0.164850
O      4.187808    1.936777   -2.117815
O      5.538121    0.327080   -0.268889
C      6.332656   -0.452266    0.619424
H     -3.432301   -1.183749   -2.457987
H     -1.782799   -1.449076   -1.836204
H     -3.177374   -2.193519   -0.998634
H     -2.863097    1.312259   -2.390348
H     -2.736931    2.154000   -0.814087
H     -0.581585    0.413702   -2.201765
H     -0.558673    2.155772   -1.811934
H     -0.348116    1.758624    0.555630
H     -0.687265   -1.294714    0.088982
H     -2.476125    0.925358    1.230253
H     -3.189021   -0.798497    2.651916
H     -3.089175   -2.054271    1.345872
H     -5.356909   -1.480623    0.970038
H     -5.161959    0.153321    1.759414
H     -0.738958   -1.307608    2.614387
H     -0.291152    0.434812    2.608343
H      1.298709   -1.993208    1.598884
H      1.756463   -0.796251    2.856295
H      3.879804   -0.868203    1.502281
H      1.624801    2.002763   -1.840527
H      5.197374    1.893146   -2.187290
H      7.400035   -0.348790    0.336045
H      6.205483   -0.091569    1.661979
H      6.048127   -1.523227    0.546679
