47

C     -3.430183    0.568022   -2.718288
C     -2.319429    1.233385   -1.913039
C     -2.814001    1.648793   -0.523353
C     -1.684014    2.305457    0.284502
C     -2.140234    2.769675    1.678697
C     -2.474449    1.631790    2.663943
C     -1.268108    0.729477    2.999764
C     -1.330226   -0.619522    2.262709
C     -0.069864   -1.475784    2.481217
C      1.161090   -1.005867    1.682422
C      1.051004   -1.320772    0.179369
C      2.280055   -0.847599   -0.614015
C      3.515032   -1.735953   -0.380575
C      4.704303   -1.313958   -1.253172
C      4.480548   -1.650683   -2.694229
O      4.125709   -0.754690   -3.506344
O      4.637349   -2.963049   -3.129737
H     -3.789863   -0.345152   -2.198148
H     -4.280358    1.270700   -2.858289
H     -3.040699    0.278836   -3.716148
H     -1.960779    2.128319   -2.466314
H     -1.472535    0.520420   -1.812518
H     -3.190819    0.749142    0.006607
H     -3.655332    2.369229   -0.631714
H     -1.330258    3.201400   -0.271095
H     -0.816036    1.618636    0.370972
H     -1.336807    3.398113    2.120849
H     -3.033777    3.422433    1.570114
H     -2.816616    2.111528    3.607116
H     -3.338314    1.036757    2.298290
H     -1.272102    0.522762    4.091571
H     -0.320685    1.261756    2.781434
H     -1.512970   -0.473582    1.182777
H     -2.202634   -1.185580    2.655515
H     -0.298193   -2.528457    2.204929
H      0.182856   -1.478696    3.564040
H      1.333806    0.079882    1.829504
H      2.042528   -1.536858    2.098130
H      0.901496   -2.412856    0.028769
H      0.167061   -0.800744   -0.243638
H      2.014837   -0.870276   -1.692837
H      2.517075    0.206296   -0.349701
H      3.830956   -1.655731    0.679452
H      3.263521   -2.800756   -0.580189
H      5.613476   -1.850873   -0.905597
H      4.896668   -0.224944   -1.138743
H      4.479912   -3.210424   -4.098706
