48

C     -4.634077   -2.051281    0.290893
C     -3.236381   -1.514562    0.481827
C     -2.333449   -2.308672    1.209400
C     -1.019957   -1.894686    1.434384
C     -0.579401   -0.664225    0.934157
C     -1.460054    0.153165    0.205145
C     -2.801455   -0.257003   -0.036691
C     -3.628685    0.623758   -0.787233
C     -3.089018    1.837999   -1.243995
C     -1.765904    2.154560   -0.955362
O     -1.275550    3.240873   -1.360565
O     -1.015366    1.319188   -0.255729
O     -4.963132    0.288238   -1.069377
C     -5.872872    1.095834   -1.810208
C      0.818356   -0.224151    1.173757
C      1.790833   -0.218328    0.133127
C      3.093017    0.317402    0.399506
C      3.401428    0.736149    1.722134
C      2.444297    0.673340    2.730086
C      1.157105    0.217730    2.462284
O      0.201409    0.206658    3.479839
O      4.606462    1.202096    2.030637
C      5.581619    1.319492    1.143923
O      6.702649    1.762973    1.506498
C      5.370426    0.963991   -0.183978
C      4.115436    0.470643   -0.581205
O      3.872989    0.158159   -1.929105
C      4.821450    0.281502   -2.984567
C      1.435995   -0.802529   -1.221407
O     -0.143942   -2.710074    2.152030
H     -4.769160   -3.042465    0.774105
H     -4.845196   -2.185356   -0.790630
H     -5.372165   -1.362003    0.751719
H     -2.649057   -3.265672    1.607316
H     -3.681383    2.537942   -1.818222
H     -5.490983    1.255017   -2.840696
H     -6.850382    0.575282   -1.871515
H     -6.021952    2.070585   -1.299604
H      2.699786    1.004052    3.729572
H      0.418555    0.521017    4.418399
H      6.179080    1.085122   -0.892454
H      5.698251   -0.371168   -2.788851
H      5.143429    1.339215   -3.087752
H      4.347494   -0.038359   -3.934996
H      1.354184    0.010120   -1.973185
H      2.201426   -1.545702   -1.526742
H      0.478902   -1.359514   -1.225942
H     -0.435055   -3.606351    2.524447
