48

C      5.842800    0.128994    0.619408
C      5.410989    0.246189   -0.846075
C      3.916292    0.604687   -0.977404
C      3.053370    0.075027    0.197645
C      3.646300   -1.214685    0.796523
C      5.063160   -0.977642    1.359425
C      1.607126   -0.118906   -0.218351
C      0.595222    0.674603    0.370558
C     -0.719996    0.480679   -0.043829
C     -1.055594   -0.474219   -0.980044
C     -0.088748   -1.289900   -1.564317
C      1.251993   -1.097389   -1.188057
N     -2.395104   -0.542098   -1.127150
C     -3.199601   -1.585510   -1.762891
C     -4.703436   -1.256510   -1.635426
N     -5.028642   -0.771191   -0.278110
C     -4.357958    0.513960   -0.009376
C     -2.896541    0.366424   -0.271866
C     -1.902203    1.034445    0.412385
C     -2.155919    1.847013    1.647965
C     -3.660846    2.173806    1.792975
C     -4.562734    0.961632    1.453368
H      5.671606    1.105499    1.123998
H      6.931806   -0.087307    0.670212
H      6.024448    1.021390   -1.354073
H      5.605917   -0.723043   -1.356213
H      3.555204    0.207812   -1.950871
H      3.809590    1.710888   -1.021745
H      3.091021    0.842784    1.004443
H      2.989327   -1.593539    1.610079
H      3.700005   -2.001503    0.012689
H      4.990922   -0.701864    2.434133
H      5.632543   -1.930985    1.301992
H      0.824859    1.412718    1.128936
H     -0.357452   -2.052979   -2.283075
H      2.012710   -1.716643   -1.645153
H     -2.922218   -1.675619   -2.834820
H     -2.996799   -2.554908   -1.258368
H     -5.291995   -2.174678   -1.849517
H     -4.983595   -0.491271   -2.394445
H     -6.062303   -0.608796   -0.240083
H     -4.760432    1.301515   -0.686733
H     -1.826159    1.258694    2.531112
H     -1.565273    2.786694    1.608183
H     -3.918426    3.018486    1.116836
H     -3.863474    2.502788    2.834779
H     -5.627059    1.242228    1.606568
H     -4.324699    0.122231    2.143780
