48

C      4.876830   -0.808598    1.783882
C      4.435002   -0.175113    0.458631
C      5.616562    0.564249   -0.186279
C      3.227930    0.762343    0.702904
C      2.612679    1.385786   -0.564274
C      2.133456    0.398394   -1.654603
C      0.930655   -0.527075   -1.312656
C      1.364631   -1.820213   -0.599932
C     -0.200619    0.212929   -0.560176
C     -1.520644   -0.574810   -0.543693
C     -2.648127    0.256915    0.088588
C     -3.966337   -0.541218    0.232827
C     -4.628395   -0.811206   -1.129424
C     -4.946314    0.140604    1.218755
C     -5.413013    1.539802    0.787445
O     -6.319833    2.053259    1.724898
H      5.205658   -0.027029    2.502377
H      4.037318   -1.380308    2.234326
H      5.717341   -1.514682    1.612343
H      4.135701   -1.005374   -0.212492
H      5.902665    1.451337    0.418569
H      5.357585    0.891832   -1.214201
H      6.495191   -0.110886   -0.267070
H      3.553453    1.595515    1.364353
H      2.436448    0.229251    1.265081
H      1.771360    2.043473   -0.260695
H      3.360204    2.067898   -1.021875
H      2.988861   -0.201248   -2.030254
H      1.823243    1.023477   -2.521123
H      0.517937   -0.848564   -2.295850
H      2.254011   -2.261220   -1.096840
H      0.556452   -2.578395   -0.659991
H      1.591283   -1.649646    0.469399
H      0.111162    0.419627    0.486406
H     -0.383776    1.187169   -1.065345
H     -1.388566   -1.508057    0.043868
H     -1.795660   -0.842889   -1.585787
H     -2.819138    1.166254   -0.527932
H     -2.314056    0.587244    1.097144
H     -3.721866   -1.530704    0.680336
H     -4.733258    0.125367   -1.716491
H     -4.021240   -1.529709   -1.718044
H     -5.633500   -1.262840   -0.989124
H     -4.458358    0.216939    2.215263
H     -5.839600   -0.509217    1.348801
H     -5.929395    1.481599   -0.192537
H     -4.547428    2.231006    0.682233
H     -5.784491    2.346049    2.508259
