49

C      6.004715   -0.206319    0.224494
C      5.408575    1.101102    0.788340
C      3.919719    0.964227    1.121321
C      3.107997    0.616488   -0.147111
C      3.815187   -0.427442   -1.058942
C      4.950816   -1.173871   -0.345615
C      1.697045    0.192182    0.219057
C      0.601544    1.011373   -0.139105
C     -0.678043    0.605498    0.233514
C     -0.900618   -0.582469    0.892935
C      0.153230   -1.426572    1.242650
C      1.459475   -1.023300    0.916446
N     -2.225365   -0.815081    1.004501
C     -2.924404   -2.065941    1.275422
C     -4.091112   -2.195159    0.280447
N     -4.981915   -1.017983    0.346606
C     -4.305548    0.295623    0.146393
C     -2.834723    0.246939    0.446360
C     -1.915867    1.142171   -0.072843
C     -2.242945    2.115929   -1.171172
C     -3.768125    2.227224   -1.406033
C     -4.495452    0.866732   -1.275578
H      6.566296   -0.732006    1.027261
H      6.735747    0.048765   -0.573638
H      5.534969    1.916415    0.042009
H      5.965396    1.399496    1.702925
H      3.798304    0.180596    1.901067
H      3.548357    1.921807    1.547486
H      3.046081    1.556119   -0.742605
H      3.089158   -1.167910   -1.461013
H      4.249755    0.094912   -1.940223
H      5.439956   -1.872192   -1.058664
H      4.529507   -1.787279    0.478882
H      0.741715    1.932161   -0.691560
H     -0.019753   -2.365925    1.750418
H      2.283593   -1.665527    1.193683
H     -3.310759   -2.054924    2.316888
H     -2.243358   -2.934217    1.151170
H     -4.669359   -3.115737    0.515814
H     -3.687762   -2.302149   -0.751511
H     -5.438560   -1.017414    1.289439
H     -5.748441   -1.144046   -0.354999
H     -4.752870    1.030473    0.854502
H     -1.765793    1.757721   -2.108956
H     -1.821682    3.113563   -0.924861
H     -4.198078    2.940490   -0.668911
H     -3.951279    2.645520   -2.419095
H     -4.096722    0.153478   -2.030396
H     -5.578602    1.016458   -1.474793
