39

C     -0.704020   -2.769075    1.629804
C     -0.976720   -1.889662    0.432009
C     -2.016760   -1.023816    0.526828
C     -2.516934   -0.078097   -0.540875
C     -2.492677    1.392032   -0.050513
C     -1.091446    1.986056   -0.299352
C     -0.092754    1.581902    0.741246
O     -0.591540    2.897592    0.661841
C      1.311224    1.277391    0.207202
C      1.531560   -0.259851    0.217619
C      0.959890   -0.948141   -1.056120
C     -0.090641   -2.060135   -0.800903
C      3.007637   -0.360129    0.446210
C      3.754875   -1.459721    0.361843
C      3.407929    0.903918    1.035981
O      4.534062    1.155642    1.539947
O      2.356662    1.803069    1.016663
C     -0.745005    2.493383   -1.714324
O     -3.462869    2.125870   -0.751302
H     -1.573907   -3.434901    1.812473
H     -0.534828   -2.139504    2.529404
H      0.196872   -3.400966    1.484806
H     -2.580767   -1.007363    1.457032
H     -1.960105   -0.188016   -1.493475
H     -3.568325   -0.365780   -0.756911
H     -2.747312    1.423583    1.036406
H     -0.449576    1.074384    1.663630
H      1.490533    1.658476   -0.817742
H      1.086841   -0.683876    1.140460
H      0.487310   -0.200612   -1.718981
H      1.786811   -1.375701   -1.663207
H     -0.731552   -2.179788   -1.700554
H      0.464142   -3.019295   -0.718400
H      4.798472   -1.440399    0.648214
H      3.326814   -2.389955    0.011765
H      0.150256    3.150214   -1.716904
H     -0.588943    1.646945   -2.410011
H     -1.579559    3.107888   -2.109362
H     -3.555649    2.996439   -0.282446
