36

C     -3.256014   -1.502261   -1.763102
C     -1.991895   -1.428749   -0.909959
C     -0.904692   -0.531842   -1.544114
C     -1.285671    0.921011   -1.736108
O     -0.714895    1.570703   -2.653390
N     -2.196537    1.601433   -0.854143
C     -2.459598    3.031664   -0.977042
C     -1.288737    3.813000   -0.469004
O     -0.712326    4.649656   -1.215655
O     -0.834591    3.611985    0.830717
N      0.354541   -0.626407   -0.799000
C      0.531724   -0.188777    0.559788
O     -0.436731    0.278687    1.216987
C      1.880325   -0.291435    1.207339
C      2.244089   -1.753679    1.473341
C      3.603456   -1.849229    2.106658
O      4.614859   -1.985557    1.367183
C      3.777987   -1.731466    3.568441
O      2.773481   -1.602142    4.316805
O      5.047527   -1.761926    4.142946
H     -4.005940   -2.146804   -1.257009
H     -3.024599   -1.938921   -2.757039
H     -3.698828   -0.492646   -1.898809
H     -2.259025   -1.089435    0.109618
H     -1.582987   -2.457655   -0.810918
H     -0.717926   -0.947109   -2.560213
H     -2.690426    1.083587   -0.096907
H     -3.350027    3.298192   -0.368455
H     -2.681821    3.284918   -2.035431
H     -0.054563    4.143836    1.199064
H      1.186260   -1.011200   -1.301298
H      2.635144    0.171000    0.536920
H      1.880232    0.272824    2.165635
H      2.251336   -2.318473    0.515269
H      1.481902   -2.223561    2.133197
H      5.884967   -1.853220    3.579798
