41

C      8.514682   -0.635786   -0.744604
C      7.136089   -0.867202   -0.147162
O      6.177481   -0.071262   -0.836387
C      4.818749   -0.071909   -0.509066
N      4.339956   -0.855087    0.502532
N      3.041585   -0.826933    0.794237
C      2.154601   -0.057970    0.148742
C      0.902355   -0.298005    0.688352
C      1.134807   -1.266454    1.663647
N      2.452906   -1.568832    1.714449
C     -0.406395    0.284444    0.337836
N     -1.523131   -0.484876    0.446097
C     -2.757549    0.008767    0.160302
N     -2.885580    1.298503   -0.254091
C     -1.803165    2.110559   -0.359683
C     -0.533634    1.622601   -0.055350
N     -3.901194   -0.852957    0.249599
C     -5.263578   -0.397224    0.195545
C     -6.237250   -1.207631   -0.409304
C     -7.573006   -0.796190   -0.452898
C     -7.949915    0.420393    0.121437
C     -6.993001    1.223051    0.747716
C     -5.655948    0.815417    0.792655
C      2.563703    0.744108   -0.915029
C      3.927958    0.738814   -1.237472
H      8.795262    0.434445   -0.647840
H      9.264416   -1.255397   -0.208909
H      8.514701   -0.917495   -1.818904
H      7.151145   -0.589067    0.929069
H      6.870325   -1.942380   -0.243176
H      0.387400   -1.715887    2.304076
H     -1.930034    3.138605   -0.671555
H      0.318815    2.286691   -0.094936
H     -3.727405   -1.883418    0.275480
H     -5.957486   -2.153610   -0.855800
H     -8.316231   -1.421901   -0.929979
H     -8.984494    0.736739    0.089155
H     -7.288901    2.157414    1.207021
H     -4.938179    1.433920    1.314717
H      1.867267    1.332807   -1.494600
H      4.291874    1.350195   -2.053249
