37

C      3.710934    0.244785    0.876039
C      2.219681    0.176597    0.507595
C      1.524498   -1.031134    1.164855
C      0.029357   -0.974906    0.951665
O     -0.728017   -0.939657    1.958628
N     -0.526513   -0.969019   -0.376523
C     -1.959272   -0.861315   -0.673877
C     -2.520310    0.494013   -0.190989
C     -3.922244    0.769191   -0.750768
C     -4.418930    2.104358   -0.285203
O     -5.143886    2.182018    0.741384
O     -4.050217    3.268582   -0.952774
C     -2.699574   -2.051269   -0.119810
O     -3.224583   -2.012760    1.026043
O     -2.762321   -3.223397   -0.866607
N      2.078274   -2.290514    0.659939
C      4.387750    1.510840    0.337188
N      4.495829    1.466614   -1.119108
H      3.812576    0.243103    1.983392
H      4.241520   -0.649531    0.482318
H      2.113800    0.113566   -0.596274
H      1.720650    1.110213    0.850522
H      1.719700   -0.982930    2.260298
H      0.123701   -1.040297   -1.190801
H     -2.075018   -0.891442   -1.780705
H     -2.552924    0.529901    0.919266
H     -1.835663    1.301491   -0.533853
H     -3.894838    0.760238   -1.861780
H     -4.629063   -0.021578   -0.418318
H     -3.451016    3.236667   -1.768965
H     -3.239494   -4.042355   -0.509145
H      1.879310   -2.382554   -0.362494
H      1.601716   -3.085413    1.145466
H      5.409035    1.570713    0.774115
H      3.828566    2.418761    0.657085
H      3.570778    1.734283   -1.526499
H      5.166210    2.214137   -1.411307
