37

C      2.451056   -0.223262   -0.048489
C      3.281757   -0.379229   -1.330109
C      4.050503    0.898700   -1.686477
N      3.138092    1.953850   -2.120952
C      1.764355   -1.546089    0.325808
C      0.962313   -1.438250    1.637857
C     -0.164724   -0.433966    1.539901
O     -0.218742    0.507936    2.376839
N     -1.168852   -0.548261    0.518144
C     -2.283784    0.395980    0.406435
C     -3.456508   -0.082671    1.278517
C     -4.560704    0.929414    1.319010
O     -5.565400    0.799761    0.569562
O     -4.457417    2.033304    2.159473
C     -2.689175    0.534585   -1.036499
O     -3.123059   -0.461604   -1.676234
O     -2.581126    1.769274   -1.668906
N      0.450200   -2.755695    2.020732
H      1.677446    0.558101   -0.205827
H      3.114323    0.095587    0.785373
H      2.618647   -0.659252   -2.178056
H      4.019298   -1.199201   -1.187021
H      4.657542    1.243629   -0.819361
H      4.750977    0.661405   -2.517461
H      2.715328    2.394404   -1.272130
H      3.709772    2.700577   -2.578293
H      2.543770   -2.329171    0.455901
H      1.101470   -1.870630   -0.505305
H      1.665966   -1.106076    2.434642
H     -1.173457   -1.399735   -0.087543
H     -1.954460    1.397095    0.764983
H     -3.844871   -1.054880    0.902382
H     -3.097419   -0.248116    2.317220
H     -5.188125    2.734274    2.188265
H     -2.848759    1.880964   -2.639484
H     -0.048648   -2.669124    2.936466
H     -0.247587   -3.083628    1.314010
