34

C      2.421847    0.549148    0.343466
C      2.166097   -0.916975    0.750033
C      1.315784   -1.754097   -0.235054
C      0.020065   -1.060231   -0.574984
O     -0.085583   -0.416541   -1.655386
N     -1.068741   -1.085324    0.359796
C     -2.286727   -0.293562    0.164281
C     -2.055129    1.144050    0.660641
C     -3.223273    2.029054    0.348757
O     -3.335222    2.547013   -0.794522
O     -4.205081    2.246464    1.310256
C     -3.441809   -0.943219    0.886833
O     -3.387486   -1.123429    2.132654
O     -4.581985   -1.340139    0.193025
N      2.071970   -2.077790   -1.447029
C      3.315120    0.691256   -0.899793
N      3.729668    2.078536   -1.098312
H      2.924811    1.048263    1.200327
H      1.460216    1.080385    0.179830
H      1.640302   -0.905181    1.730116
H      3.139108   -1.425523    0.926238
H      1.061500   -2.710546    0.276517
H     -0.922450   -1.576135    1.271536
H     -2.525647   -0.262084   -0.921995
H     -1.151001    1.564628    0.169266
H     -1.868115    1.146125    1.756691
H     -5.008988    2.829025    1.109138
H     -4.666840   -1.204734   -0.807108
H      2.918508   -2.627461   -1.172194
H      1.491546   -2.719275   -2.035751
H      2.761455    0.360538   -1.802843
H      4.221257    0.056290   -0.791767
H      2.876466    2.680532   -1.162747
H      4.278357    2.390939   -0.264326
