47

C     -0.826486   -1.612119   -0.294197
C      0.116009   -0.546477   -0.521480
C     -0.960068    0.426852   -0.156806
O     -1.037057    1.680276   -0.072273
N     -1.894689   -0.701693    0.059732
C     -3.289173   -0.858717    0.459698
C     -4.182667   -0.054608   -0.458879
C     -4.307546    1.341578   -0.319728
C     -5.102265    2.073774   -1.206684
C     -5.769549    1.427842   -2.251395
C     -5.638578    0.041939   -2.407437
C     -4.846111   -0.693742   -1.520898
O     -6.554232    2.171229   -3.130294
C     -3.483578   -0.482614    1.903326
O     -2.663846    0.274843    2.490197
O     -4.602737   -0.948306    2.586321
N      1.213508   -0.539261    0.447853
C      2.288323   -1.488009    0.372660
O      2.277189   -2.383284   -0.516009
C      3.466164   -1.398933    1.307630
C      4.455627   -0.383191    0.777769
C      5.572462   -0.813082    0.039622
C      6.468992    0.116850   -0.495080
C      6.254357    1.486541   -0.313802
C      5.137970    1.925316    0.410022
C      4.242285    0.997840    0.950081
O      7.152953    2.401561   -0.857620
N      3.029396   -1.047944    2.660992
H     -1.076002   -2.172146   -1.222747
H     -0.576261   -2.278544    0.561655
H      0.457276   -0.440317   -1.574470
H     -3.548147   -1.937141    0.376095
H     -3.790126    1.865695    0.473946
H     -5.194935    3.145731   -1.085436
H     -6.146300   -0.465547   -3.217717
H     -4.747655   -1.762428   -1.666459
H     -7.043943    1.734199   -3.902867
H     -4.761150   -0.698627    3.555364
H      1.250424    0.214232    1.171665
H      3.953663   -2.401046    1.352443
H      5.748281   -1.868707   -0.126186
H      7.326823   -0.227389   -1.059188
H      4.962376    2.984090    0.552436
H      3.383211    1.358788    1.500221
H      7.026119    3.400211   -0.742803
H      3.866481   -1.062663    3.289030
H      2.393212   -1.802856    3.007256
