37

C     -6.087162    0.524070   -0.456332
O     -4.682624    0.740555   -0.548559
C     -3.705519   -0.047252    0.084731
C     -4.064728   -1.149763    0.886839
C     -3.088968   -1.928391    1.512759
C     -1.736846   -1.617611    1.348081
C     -1.354047   -0.530582    0.559838
C     -2.332900    0.266545   -0.081430
C     -1.878313    1.345621   -0.868434
O     -2.682874    2.098254   -1.481299
C     -0.509032    1.589630   -0.980529
C      0.398822    0.758773   -0.304888
O     -0.060681   -0.256854    0.421880
C      1.866350    0.970081   -0.389076
C      2.734219   -0.123316   -0.216260
C      4.131515    0.046718   -0.281128
C      4.657989    1.324367   -0.511841
C      3.800191    2.418870   -0.671613
C      2.416384    2.246513   -0.607284
O      6.039385    1.499054   -0.577687
O      5.024265   -1.024963   -0.121656
C      4.632418   -2.372602    0.119171
O     -3.475898   -3.011886    2.298622
H     -6.418364    0.609247    0.600167
H     -6.612303    1.295699   -1.055590
H     -6.346898   -0.476888   -0.861010
H     -5.102914   -1.414721    1.033091
H     -0.980210   -2.221479    1.833921
H     -0.165833    2.401316   -1.609146
H      2.316879   -1.106340   -0.043742
H      4.206677    3.408276   -0.839046
H      1.784778    3.119197   -0.703773
H      6.451742    2.410012   -0.742158
H      5.540258   -3.004142    0.204617
H      4.061671   -2.440468    1.069385
H      4.016695   -2.748071   -0.725303
H     -2.794122   -3.597468    2.766833
