41

C      6.220628   -1.394451   -1.426877
O      5.600811   -1.190406   -0.161314
C      4.463682   -0.395092    0.044685
C      3.957387   -0.283387    1.344043
C      2.822666    0.497176    1.607376
C      2.183439    1.183035    0.556741
C      2.689888    1.066865   -0.747699
C      3.820224    0.287080   -1.003696
C      0.943053    2.006991    0.810060
C     -0.314282    1.134003    0.934191
C     -0.691161    0.460664   -0.392477
C     -1.967860   -0.322712   -0.241938
C     -3.208760    0.295006   -0.466009
C     -4.407845   -0.424928   -0.293510
C     -4.351727   -1.765563    0.114415
C     -3.113844   -2.377667    0.351328
C     -1.929107   -1.659616    0.179686
O     -5.534146   -2.483635    0.285423
O     -5.667003    0.154937   -0.514319
C     -5.872730    1.502018   -0.927365
O      2.330071    0.592238    2.908931
H      7.095927   -2.063513   -1.298204
H      6.571415   -0.425549   -1.840894
H      5.506374   -1.874315   -2.128884
H      4.448845   -0.808800    2.153431
H      2.204412    1.576802   -1.570763
H      4.183480    0.219380   -2.019999
H      0.798393    2.757344    0.001780
H      1.073657    2.584085    1.751032
H     -0.160411    0.360634    1.718527
H     -1.155861    1.783450    1.261441
H     -0.812948    1.231884   -1.184605
H      0.123935   -0.221516   -0.717575
H     -3.230842    1.332770   -0.771084
H     -3.069540   -3.410612    0.672389
H     -0.981023   -2.144940    0.376631
H     -5.528072   -3.453207    0.580068
H     -6.961727    1.688891   -1.024774
H     -5.392526    1.676745   -1.913320
H     -5.458525    2.201040   -0.170364
H      2.771654    0.106870    3.681051
