11

C     -1.725225    0.076885   -0.158262
C     -0.378712   -0.442892    0.227221
O     -0.287979   -1.484454    0.931325
N      0.803527    0.221292   -0.228933
N      2.075938   -0.270762    0.103205
H     -2.520042   -0.418232    0.439234
H     -1.770933    1.170985    0.023753
H     -1.903787   -0.122310   -1.235329
H      0.714294    1.059609   -0.848035
H      2.783981    0.325776   -0.382644
H      2.208938   -0.115898    1.128467
