24

C      3.521394    0.933093   -0.363129
O      2.115234    0.725264   -0.315187
C      1.545490   -0.524579   -0.052275
O      2.282801   -1.530439    0.140426
N      0.116881   -0.667686   -0.014790
C     -0.538190   -1.962997   -0.065619
C     -1.973851   -1.682175   -0.484431
C     -2.206105   -0.195529   -0.226914
C     -0.814072    0.446352   -0.141747
C     -0.700504    1.401548    1.061690
O     -1.643075    2.435163    0.962984
H      3.971271    0.307088   -1.162615
H      3.724435    2.000762   -0.585196
H      3.977114    0.676237    0.616563
H     -0.505088   -2.434914    0.940056
H     -0.044041   -2.624818   -0.810370
H     -2.690917   -2.310438    0.087500
H     -2.092865   -1.892054   -1.570368
H     -2.805556    0.260419   -1.044849
H     -2.767530   -0.082192    0.727374
H     -0.597012    0.997773   -1.083744
H      0.322369    1.833100    1.125510
H     -0.881772    0.841063    2.004021
H     -1.316412    3.049960    0.255109
