29

C      1.786314    1.245064   -0.608718
C      1.822638   -0.183872   -0.047898
C      3.015506   -0.312158    0.912343
C      0.506560   -0.563422    0.692084
C     -0.749772   -0.959332   -0.162509
C     -0.458653   -1.321935   -1.630842
C     -1.965926    0.013429   -0.035714
C     -1.669755    1.447100   -0.494368
C     -2.556974    0.018397    1.384586
H      1.013282    1.349186   -1.390940
H      2.760436    1.495866   -1.080478
H      1.587935    1.980357    0.200188
H      2.018060   -0.888670   -0.881653
H      3.962199   -0.051604    0.392059
H      2.889433    0.362152    1.786906
H      3.107763   -1.357927    1.275979
H      0.730796   -1.441824    1.338473
H      0.261468    0.248931    1.405957
H     -1.112027   -1.920778    0.269881
H     -1.385836   -1.679358   -2.127523
H      0.277283   -2.151974   -1.682499
H     -0.076776   -0.456876   -2.205363
H     -2.773847   -0.372775   -0.697339
H     -0.906150    1.925432    0.151561
H     -2.595631    2.058722   -0.439923
H     -1.331584    1.457378   -1.550240
H     -1.868677    0.493052    2.113412
H     -2.775701   -1.018138    1.718263
H     -3.512362    0.585574    1.394316
