20

C     -1.323920   -0.915371   -0.470683
C     -0.418439    0.113568    0.238926
C     -1.291517    1.293236    0.713706
C      0.237068   -0.542295    1.472536
C      0.662432    0.662254   -0.735420
C      1.592299   -0.393322   -1.270411
O      1.298533   -1.012903   -2.326601
O      2.774206   -0.703719   -0.603582
H     -0.748628   -1.819449   -0.762205
H     -1.774681   -0.474355   -1.385830
H     -2.146967   -1.241534    0.201484
H     -1.788742    1.785977   -0.149823
H     -2.080701    0.944349    1.414637
H     -0.672968    2.052703    1.239365
H      0.818095   -1.443555    1.183467
H      0.922469    0.172158    1.977448
H     -0.536891   -0.859915    2.204428
H      1.270494    1.438718   -0.221427
H      0.168637    1.165897   -1.595969
H      3.039220   -0.222442    0.247397
