38

C      4.578414   -1.582369    0.315551
C      3.351382   -0.901798   -0.293179
C      2.947632    0.398364    0.443586
C      4.029311    1.495179    0.304411
O      4.199902    1.870436   -1.037280
N      1.653641    0.879726   -0.088524
C      0.515952    0.299169    0.639919
C     -0.789676    0.631109   -0.081936
N     -1.922638    0.043240    0.645128
C     -3.225157    0.584080    0.206270
C     -3.581462    0.254792   -1.271444
C     -3.556323   -1.230106   -1.642859
C     -4.329821    0.164312    1.193266
O     -4.345190   -1.224633    1.376268
H      4.446035   -1.719151    1.409779
H      5.495823   -0.989438    0.122122
H      4.714667   -2.581268   -0.150080
H      3.539003   -0.695000   -1.368703
H      2.513590   -1.628493   -0.247597
H      2.858222    0.176830    1.533125
H      4.992128    1.168210    0.757867
H      3.713195    2.390936    0.880516
H      4.936482    1.313530   -1.401172
H      1.584688    1.918931    0.026782
H      0.612262   -0.806220    0.701728
H      0.477036    0.707299    1.675494
H     -0.894172    1.737753   -0.134619
H     -0.741545    0.223388   -1.115765
H     -1.900579   -0.996645    0.535612
H     -3.183607    1.695144    0.274458
H     -4.594746    0.653816   -1.495236
H     -2.883948    0.796145   -1.945517
H     -4.277752   -1.809236   -1.033438
H     -3.850741   -1.340671   -2.707793
H     -2.537777   -1.654402   -1.532313
H     -5.321120    0.510264    0.823080
H     -4.138728    0.657869    2.172811
H     -5.084386   -1.411093    2.011584
