47

C     -0.499719    1.243210   -3.929003
C     -1.218760    1.150453   -2.622719
O     -1.587837    2.207485   -2.043199
N     -1.435931   -0.130739   -2.013379
C     -2.017906   -0.283762   -0.675113
C     -0.908135   -0.482737    0.370140
C     -1.556336   -0.751858    1.743490
C     -2.578287   -1.908096    1.623483
O     -3.572879   -1.615090    0.652248
C     -3.014210   -1.463341   -0.642698
O     -2.412994   -2.666607   -1.063213
C     -3.273943   -2.182371    2.967192
O     -3.970075   -1.051260    3.420085
O     -0.567403   -1.098449    2.679769
O     -0.130932    0.704078    0.427162
C      1.246943    0.447214    0.643240
C      2.018622    0.558073   -0.685768
C      3.538317    0.471878   -0.420963
C      3.957170    1.394787    0.692340
C      3.086517    1.813468    1.626437
O      1.739195    1.428415    1.556101
C      3.496107    2.689875    2.744260
O      2.740832    2.789515    3.746508
O      4.676136    3.433923    2.721267
O      4.246027    0.813901   -1.583416
O      1.614641   -0.435783   -1.594074
H     -0.811116    0.410201   -4.593426
H      0.594268    1.181915   -3.753591
H     -0.733991    2.205422   -4.431756
H     -1.014113   -0.967520   -2.475953
H     -2.593313    0.631941   -0.409185
H     -0.316373   -1.377790    0.060386
H     -2.096737    0.168617    2.072682
H     -2.038433   -2.845248    1.353933
H     -3.856898   -1.207680   -1.327631
H     -2.568338   -2.750244   -2.040121
H     -3.969158   -3.046433    2.859411
H     -2.520126   -2.466823    3.731676
H     -4.823543   -1.018617    2.914244
H     -0.239668   -0.252508    3.082948
H      1.447458   -0.550633    1.100694
H      1.792904    1.549724   -1.137724
H      3.807105   -0.563145   -0.104706
H      5.010375    1.626063    0.773739
H      5.274679    3.491106    1.908079
H      4.212111    0.023618   -2.183481
H      1.827748   -1.318148   -1.191725
