41

C      4.184961    2.695899    1.180570
O      4.894640    1.466327    1.069927
C      4.293090    0.217997    0.844526
C      5.116307   -0.912913    0.757549
C      4.554224   -2.175564    0.533641
C      3.172404   -2.317734    0.395570
C      2.330067   -1.196258    0.479557
C      2.898493    0.070247    0.704490
C      0.864546   -1.341663    0.333706
O      0.356793   -2.480358    0.136259
O      0.041372   -0.212428    0.416832
C     -1.375773   -0.270015    0.276803
C     -1.957835    1.129533    0.550291
C     -3.484962    1.118695    0.339057
C     -3.823487    0.498661   -1.028699
C     -3.092081   -0.855481   -1.186192
O     -1.692153   -0.678634   -1.042380
C     -3.363238   -1.462569   -2.567421
O     -2.700871   -2.691894   -2.679690
O     -5.211256    0.300850   -1.126388
O     -3.985681    2.429670    0.392349
O     -1.631136    1.563971    1.847333
O      6.496361   -0.772924    0.895195
H      3.479400    2.653992    2.037126
H      3.633315    2.904566    0.239615
H      4.908942    3.517489    1.357092
H      5.189382   -3.049733    0.466281
H      2.764410   -3.305847    0.222959
H      2.255146    0.936949    0.770164
H     -1.771877   -0.998225    1.024007
H     -1.505004    1.842280   -0.174523
H     -3.965396    0.495990    1.131814
H     -3.475499    1.185057   -1.837981
H     -3.476241   -1.577644   -0.426797
H     -3.000131   -0.768986   -3.359384
H     -4.456516   -1.621591   -2.702742
H     -2.901549   -3.030853   -3.590641
H     -5.611706    1.178793   -1.359703
H     -4.044580    2.676178    1.352235
H     -2.025791    0.918013    2.490147
H      7.118910   -1.570438    0.837449
