36

C      5.630456   -0.409238    1.516417
C      4.352040    0.023696    0.804307
C      3.888213   -1.044770   -0.196625
C      2.681973   -0.589241   -1.033144
C      1.382270   -0.528510   -0.213673
C      0.171127   -0.167090   -1.095787
C     -1.076592    0.004911   -0.261142
C     -2.221958    0.433734   -0.811075
C     -3.469264    0.601571    0.015871
O     -4.539290    0.992469   -0.830151
C     -5.231031   -0.140751   -1.308546
O     -3.232943    1.625926    0.962082
C     -4.215561    1.584626    1.974026
O     -0.037396   -1.141449   -2.088497
H      5.937122    0.375374    2.239875
H      6.451488   -0.554873    0.782419
H      5.461003   -1.357012    2.070643
H      4.544861    0.980800    0.272576
H      3.567129    0.196203    1.570375
H      3.640176   -1.986080    0.341392
H      4.724366   -1.267402   -0.895525
H      2.552001   -1.316220   -1.864109
H      2.891357    0.404651   -1.486118
H      1.484270    0.244814    0.577559
H      1.204751   -1.509612    0.279953
H      0.383566    0.802848   -1.597119
H     -1.045235   -0.214949    0.803668
H     -2.257750    0.652590   -1.875578
H     -3.657165   -0.374307    0.536070
H     -5.995700    0.193229   -2.039364
H     -5.759797   -0.658354   -0.478102
H     -4.546744   -0.844982   -1.832465
H     -4.131884    0.650650    2.572362
H     -4.049774    2.438695    2.662151
H     -5.240952    1.686154    1.554067
H     -0.239132   -1.998820   -1.628792
