37

C      3.425574    0.829424    1.759058
C      2.782883    0.593879    0.388460
C      1.425727   -0.141543    0.480001
C      1.535596   -1.673947    0.387502
C      0.310721   -2.368098   -0.224661
C     -1.046269   -1.972388    0.335409
C     -1.600849   -0.767425    0.039413
C     -0.918890    0.575691   -0.142184
C      0.541251    0.512415   -0.616076
O      1.097050    1.807163   -0.776870
C      2.376745    1.861200   -0.266558
O      3.117943    2.871807   -0.389047
C     -1.883897    1.315870   -1.042707
C     -3.068264    0.711877   -1.081937
C     -2.983660   -0.555374   -0.389968
O     -3.939038   -1.368105   -0.277594
C     -1.659740    2.695360   -1.598120
O     -1.443402    3.608450   -0.557723
C     -1.917727   -3.102494    0.819348
H      2.760977    1.436268    2.411482
H      3.623515   -0.145434    2.252721
H      4.392015    1.363169    1.637479
H      3.493974    0.063020   -0.281327
H      0.981359    0.089067    1.476831
H      2.415102   -1.957677   -0.230091
H      1.712683   -2.083580    1.406209
H      0.300766   -2.210807   -1.324061
H      0.465016   -3.462676   -0.103925
H     -0.946709    1.100739    0.839135
H      0.625611   -0.014348   -1.590490
H     -3.951015    1.097840   -1.575913
H     -2.522405    3.021903   -2.223087
H     -0.770855    2.683768   -2.260761
H     -2.326573    3.766805   -0.132354
H     -2.414194   -3.595138   -0.043054
H     -2.682187   -2.730154    1.534064
H     -1.308836   -3.856526    1.361396
