30

C     -5.566971    0.583111    0.662102
C     -4.278533   -0.109243    0.665027
C     -3.215994   -0.678554    0.665763
C     -1.919990   -1.368856    0.664747
C     -1.303613   -1.419775   -0.741276
C     -1.035026   -0.038599   -1.374803
C     -0.100156    0.878825   -0.566360
C      1.302997    0.284830   -0.375388
C      2.242374    1.301284    0.278878
C      3.574723    0.717912    0.470197
C      4.669400    0.237911    0.627305
C      5.997355   -0.345369    0.817592
H     -5.763077    1.004055    1.669672
H     -5.543540    1.404292   -0.083567
H     -6.371483   -0.133598    0.397629
H     -2.078979   -2.407661    1.023418
H     -1.232950   -0.872042    1.379898
H     -1.990417   -1.982747   -1.411020
H     -0.359387   -2.002715   -0.701087
H     -2.002159    0.487563   -1.526666
H     -0.597072   -0.195252   -2.384669
H     -0.552002    1.116087    0.419994
H     -0.011014    1.838827   -1.120794
H      1.715834   -0.015604   -1.364096
H      1.240754   -0.614915    0.274433
H      2.337809    2.201936   -0.364426
H      1.841658    1.607052    1.268939
H      6.762305    0.457503    0.784609
H      6.039546   -0.856060    1.801598
H      6.197609   -1.080196    0.010878
