49

C      3.361116   -0.061766    1.916317
C      2.775542    0.352689    0.557568
C      3.810331    0.196141   -0.595074
C      3.263309    0.690099   -1.970207
C      1.761860    0.368998   -2.211209
C      0.937151    0.517922   -0.907770
C      1.513299   -0.434564    0.136408
C      0.385741   -0.582910    1.188155
C     -0.952071   -0.368820    0.408331
C     -0.548514    0.154283   -1.021329
C     -1.431549    1.315697   -1.577026
C     -2.923865    1.211579   -1.168024
C     -3.130402    0.564272    0.233018
C     -1.853964    0.684673    1.077247
C     -3.245459   -0.926944    0.078822
C     -4.376957   -1.582848   -0.211506
C     -1.920972   -1.589181    0.335315
O     -1.545079   -2.546008   -0.631524
O     -4.248751    1.090277    0.903430
C      0.485297   -1.880495    1.959853
O      0.756459   -2.960009    1.369338
O      0.225968   -1.905438    3.327334
O      1.159894    1.812193   -0.338248
C      2.235414    1.741826    0.527869
O      2.719843    2.738013    1.126646
H      2.653279    0.148192    2.744676
H      3.595429   -1.147458    1.913334
H      4.296960    0.501943    2.116922
H      4.099529   -0.874132   -0.686592
H      4.734646    0.765544   -0.353604
H      3.871654    0.250797   -2.789660
H      3.397717    1.792682   -2.025594
H      1.359441    1.054953   -2.987303
H      1.671577   -0.669362   -2.599680
H      1.761614   -1.425407   -0.311089
H      0.486951    0.243416    1.925505
H     -0.613699   -0.668580   -1.760790
H     -1.353163    1.344676   -2.685505
H     -1.055205    2.295047   -1.212896
H     -3.477543    0.637500   -1.943952
H     -3.354964    2.236443   -1.175025
H     -1.420072    1.709036    1.065809
H     -2.058467    0.408260    2.137767
H     -4.382590   -2.665589   -0.285673
H     -5.302519   -1.041561   -0.378961
H     -2.002710   -2.097034    1.320144
H     -2.045531   -2.378786   -1.472426
H     -4.051003    2.043425    1.099162
H     -0.024974   -1.063686    3.831697
