40

C     -7.670817   -0.130367    1.336516
O     -6.939544   -0.214425    0.117630
C     -5.540190   -0.169149    0.027814
C     -4.714376   -0.037058    1.158621
C     -3.317894    0.002754    1.023615
C     -2.731898   -0.069378   -0.259704
C     -3.565483   -0.218543   -1.380393
C     -4.953393   -0.263381   -1.236172
C     -1.265526   -0.015559   -0.470142
C     -0.321031    0.603504    0.353394
C      0.879752    0.393844   -0.283006
C      0.613204   -0.313706   -1.421533
O     -0.670834   -0.549262   -1.524760
C      1.622306   -0.693182   -2.301485
C      2.942560   -0.322404   -1.987213
C      3.224130    0.425469   -0.814257
C      2.172303    0.782635    0.059209
C      4.643861    0.787203   -0.471682
C      5.292044   -0.317227    0.369726
C      6.735105    0.035399    0.726537
O      7.291169   -0.995641    1.493464
O     -2.523199    0.087689    2.166079
H     -8.755695   -0.189541    1.113167
H     -7.398771   -0.975110    2.004064
H     -7.463747    0.837485    1.840138
H     -5.145236    0.024653    2.148694
H     -3.142535   -0.285807   -2.375421
H     -5.577989   -0.369496   -2.114219
H     -0.480898    1.161104    1.265777
H      1.398836   -1.258017   -3.197054
H      3.745212   -0.615507   -2.652365
H      2.358949    1.338617    0.969773
H      5.228011    0.939637   -1.405933
H      4.661269    1.746908    0.090532
H      4.710603   -0.459769    1.307385
H      5.281910   -1.272765   -0.199847
H      6.754142    0.984648    1.307995
H      7.328177    0.167830   -0.206337
H      8.221879   -0.716650    1.695838
H     -2.926365    0.132564    3.094695
