44

C     -6.653006    0.809102   -1.196472
C     -6.143851   -0.099024   -0.080804
C     -4.634633    0.071835    0.127673
C     -4.130276   -0.836892    1.258609
C     -2.601884   -0.795644    1.412969
C     -2.100553    0.541281    1.986975
C     -0.602100    0.505029    2.314669
C      0.231759    0.390629    1.076253
O      0.475488    1.420068    0.389223
O      0.691329   -0.867426    0.670454
C      1.496595   -1.072780   -0.488430
C      2.941793   -0.642011   -0.221531
C      3.826597   -0.890430   -1.451887
C      5.309763   -0.589492   -1.184512
C      5.592667    0.913741   -1.047279
C      7.089481    1.181148   -0.917422
H     -6.464730    1.874269   -0.943377
H     -7.746168    0.662758   -1.325101
H     -6.146699    0.564369   -2.154514
H     -6.369148   -1.154851   -0.346889
H     -6.682518    0.149829    0.859580
H     -4.425463    1.133441    0.379312
H     -4.103284   -0.181556   -0.816129
H     -4.422909   -1.886012    1.033316
H     -4.614192   -0.551678    2.218519
H     -2.305095   -1.616315    2.102235
H     -2.123845   -0.993276    0.428912
H     -2.295341    1.366582    1.269045
H     -2.654419    0.766167    2.924443
H     -0.326477    1.440093    2.848713
H     -0.380561   -0.344830    2.995950
H      1.477573   -2.155438   -0.736308
H      1.072830   -0.514364   -1.352082
H      2.954121    0.436971    0.037113
H      3.334561   -1.217521    0.644981
H      3.465963   -0.278240   -2.307586
H      3.742012   -1.960162   -1.744376
H      5.899153   -0.988380   -2.039280
H      5.643492   -1.123314   -0.267602
H      5.208569    1.453199   -1.940268
H      5.086244    1.317014   -0.145208
H      7.496840    0.666051   -0.021382
H      7.625971    0.823614   -1.822080
H      7.264353    2.272446   -0.810003
