28

C      3.949400   -0.052361    1.184419
C      2.589032    0.097808    1.809972
N      1.521955    0.289984    1.089161
C      1.495471    0.383396   -0.368162
C      0.082436    0.604154   -0.824601
C     -0.426459    1.906716   -0.944830
C     -1.754888    2.110772   -1.326340
C     -2.587290    1.018571   -1.583536
C     -2.093154   -0.289846   -1.466699
C     -0.761562   -0.491726   -1.068376
C     -3.001843   -1.465246   -1.698795
N     -3.709700   -1.797372   -0.467178
N      2.457871    0.028364    3.230998
H      3.958976   -0.929625    0.504475
H      4.726520   -0.206958    1.961783
H      4.207029    0.863628    0.612988
H      1.894122   -0.553956   -0.814193
H      2.138030    1.226357   -0.704421
H      0.203509    2.763090   -0.738070
H     -2.142257    3.117474   -1.415715
H     -3.617718    1.192077   -1.868395
H     -0.383198   -1.499964   -0.946394
H     -2.418107   -2.345245   -2.051477
H     -3.739922   -1.217498   -2.493166
H     -4.382401   -2.567824   -0.684839
H     -3.017410   -2.190900    0.211490
H      1.520631    0.130028    3.680534
H      3.290927   -0.123901    3.841663
