28

C     -2.887796    0.903959   -1.095679
C     -3.964240    0.036065   -0.472868
C     -2.788031    0.511503    0.372921
C     -1.750409   -0.540149    0.679973
C     -0.417438   -0.253375    0.714014
C      0.130947    1.083836    0.335342
O     -0.563925    2.130035    0.438398
C      1.567817    1.222975   -0.088666
C      2.151246   -0.131126   -0.527006
C      2.017489   -1.169026    0.601040
C      0.601832   -1.267694    1.104303
O      0.335036   -2.152332    1.961342
C      3.588807    0.013971   -0.957621
O      3.917757   -0.283309   -2.136306
O      4.567900    0.469865   -0.076868
O     -2.236561   -1.830879    0.919162
H     -3.195529    1.957052   -1.266810
H     -2.210401    0.359815   -1.789121
H     -3.939362   -1.013533   -0.836491
H     -4.917137    0.576667   -0.291476
H     -3.032311    1.297014    1.119388
H      1.628840    1.941681   -0.935122
H      2.145942    1.638265    0.764500
H      1.561411   -0.493696   -1.400698
H      2.670850   -0.893659    1.456780
H      2.338243   -2.165277    0.225971
H      4.351107    0.719175    0.880006
H     -1.672082   -2.667823    0.871694
