48

C      1.823112    0.858457   -3.609860
O      0.968270    0.429442   -2.555002
C      1.410860   -0.175773   -1.367904
C      0.452259   -0.537987   -0.408404
C      0.868041   -1.142887    0.793226
C      2.222160   -1.379389    1.034083
C      3.184135   -1.025757    0.079466
C      2.775297   -0.421060   -1.118389
C      4.647864   -1.258065    0.357769
C      5.236872   -0.181835    1.283494
C      5.265718    1.214579    0.646427
O      6.020086    1.213599   -0.535672
O     -0.899996   -0.277329   -0.692660
C     -2.002093   -0.510903    0.187214
C     -1.986593    0.535296    1.349410
C     -3.193407    1.499092    1.274742
C     -4.527759    0.735030    1.087182
C     -4.329080   -0.553967    0.246168
O     -3.189705   -0.427684   -0.584703
C     -5.557503   -0.832617   -0.630777
O     -5.387373   -2.025623   -1.347755
O     -5.071351    0.389110    2.336420
O     -3.019764    2.380072    0.192316
O     -1.931313   -0.096334    2.605673
H      2.383475   -0.006625   -4.023152
H      1.206406    1.300975   -4.418655
H      2.529611    1.630726   -3.238658
H      0.156566   -1.433964    1.551481
H      2.522487   -1.838587    1.967989
H      3.524462   -0.139137   -1.846034
H      5.226484   -1.301502   -0.590728
H      4.769463   -2.250076    0.844900
H      4.650130   -0.139259    2.226952
H      6.275120   -0.473516    1.552989
H      4.232642    1.549001    0.415784
H      5.692651    1.943702    1.371675
H      6.973458    1.161047   -0.263789
H     -1.913928   -1.548958    0.582273
H     -1.065573    1.153559    1.270080
H     -3.244926    2.093460    2.217905
H     -5.239938    1.416569    0.561663
H     -4.218696   -1.432692    0.926546
H     -6.475288   -0.890542   -0.001349
H     -5.693793   -0.003016   -1.357421
H     -5.542609   -2.767592   -0.706536
H     -5.464376    1.216103    2.720759
H     -2.354297    3.060642    0.475414
H     -2.708271   -0.707783    2.678119
