50

C      1.772705    1.393647   -1.041559
C      1.644846    0.596071    0.272594
C      0.596572   -0.528785    0.171481
O     -0.727183    0.003851    0.085958
C     -1.437787    0.321170   -1.086398
C     -0.971240   -0.022593   -2.372761
C     -1.717809    0.303034   -3.507110
C     -2.937460    0.965372   -3.377834
C     -3.415337    1.308146   -2.112913
C     -2.670610    0.999048   -0.961947
C     -3.222941    1.356805    0.396258
C     -3.941342    0.179334    0.999609
C     -3.306399   -0.630852    1.956696
C     -3.968686   -1.740287    2.491261
C     -5.265223   -2.051302    2.072679
C     -5.901642   -1.253881    1.117692
C     -5.243110   -0.143653    0.580219
N      2.936362    0.034481    0.750211
C      3.746321   -0.631571   -0.290963
C      4.824520   -1.515845    0.361002
C      5.253300   -0.997818    1.745238
C      5.163741    0.528528    1.816395
C      3.730760    1.022061    1.519501
H      2.593046    2.136418   -0.974167
H      0.836212    1.955179   -1.239141
H      1.971909    0.722753   -1.902859
H      1.256578    1.303741    1.041405
H      0.811544   -1.241108   -0.648396
H      0.647159   -1.121869    1.109530
H     -0.038259   -0.543381   -2.518808
H     -1.351176    0.035990   -4.489961
H     -3.515730    1.210504   -4.259336
H     -4.368656    1.815397   -2.030306
H     -2.402160    1.699895    1.063420
H     -3.925090    2.215609    0.315108
H     -2.301459   -0.404440    2.290135
H     -3.475930   -2.359950    3.229288
H     -5.775974   -2.910878    2.487045
H     -6.904706   -1.497341    0.792049
H     -5.745517    0.462844   -0.163049
H      3.113751   -1.273235   -0.940226
H      4.239226    0.128499   -0.938714
H      4.438868   -2.552724    0.472798
H      5.709587   -1.558666   -0.310697
H      6.293569   -1.323941    1.961337
H      4.591287   -1.434100    2.525697
H      5.481492    0.875422    2.823529
H      5.867367    0.964155    1.072913
H      3.217733    1.206863    2.488576
H      3.792971    1.993405    0.982854
