40

C      4.599787   -2.085167    0.191421
C      4.311729   -0.795893   -0.519356
O      4.546436   -0.711837   -1.715251
C      3.753365    0.398520    0.217179
C      2.277079    0.707969   -0.166963
C      1.374674   -0.491113    0.216406
C     -0.105457   -0.203728    0.063881
C     -0.979483   -1.283074   -0.088734
C     -2.358163   -1.081199   -0.199484
C     -3.204472   -2.189297   -0.356421
C     -4.586683   -2.016861   -0.442088
C     -5.127173   -0.733410   -0.410948
C     -4.303894    0.392344   -0.299625
C     -2.898886    0.229644   -0.122114
C     -2.027449    1.305286    0.191947
C     -0.621377    1.104405    0.188103
C      0.342611    2.234265    0.250503
O     -0.010507    3.404091   -0.061324
C      1.782462    1.962019    0.602123
O      2.584329    3.074504    0.287659
O     -2.568705    2.528273    0.596911
O     -4.923054    1.638270   -0.425035
O     -5.433174   -3.115776   -0.572840
O      2.167788    0.916825   -1.558532
H      5.682878   -2.316591    0.117164
H      4.019506   -2.905429   -0.280637
H      4.318982   -2.027910    1.263786
H      3.822703    0.235351    1.314927
H      4.400222    1.273097   -0.011453
H      1.644039   -1.364758   -0.417391
H      1.558230   -0.777289    1.275451
H     -0.577292   -2.289609   -0.133192
H     -2.793356   -3.191510   -0.398048
H     -6.197366   -0.605235   -0.518349
H      1.838714    1.757341    1.697886
H      2.471087    3.729982    1.025077
H     -2.048219    3.231283    1.103761
H     -4.443479    2.470978   -0.737430
H     -5.072585   -4.062343   -0.603274
H      2.784153    1.653581   -1.809267
