43

C     -0.895494   -2.639245    1.005542
C     -1.765455   -1.465660    0.463536
C     -2.897211   -1.220653   -0.587238
N     -2.748198    0.153313   -1.237490
C     -1.652796    0.952536   -0.611540
C     -1.155404    2.295804   -1.208537
C      0.298036    2.502344   -0.700856
C      1.262387    1.612603   -1.070097
C      2.322624    1.076714   -0.105657
C      2.356331    1.858365    1.186729
O      3.183816    1.545438    2.083826
C      1.468297    3.016295    1.395827
C      0.512482    3.319309    0.512899
C      2.137386   -0.445738    0.131425
C      2.905373   -1.383277   -0.590889
C      2.588422   -2.751807   -0.534949
C      1.439304   -3.197025    0.127681
C      0.628420   -2.296136    0.828087
C      1.093607   -0.946669    0.947257
O      3.975160   -0.957459   -1.378086
C     -1.867996    0.970474    0.911846
N     -1.805798   -0.389832    1.473912
H     -1.111433   -2.808324    2.081931
H     -1.158850   -3.570563    0.456999
H     -1.052352   -1.369628   -0.342776
H     -2.887261   -2.019165   -1.365570
H     -3.879307   -1.287926   -0.069909
H     -2.538139    0.029768   -2.255516
H     -3.647699    0.681562   -1.154408
H     -0.752512    0.405157   -0.849358
H     -1.816743    3.130269   -0.891482
H     -1.159383    2.243215   -2.318981
H      1.116677    1.037743   -1.978144
H      3.303995    1.256405   -0.592043
H      1.566067    3.606707    2.298377
H     -0.168134    4.132685    0.730770
H      3.182963   -3.465024   -1.091672
H      1.134213   -4.229688    0.013724
H      0.553969   -0.236368    1.545151
H      4.537523   -1.610965   -1.910558
H     -1.111097    1.579865    1.433991
H     -2.856846    1.433242    1.128715
H     -2.638946   -0.548661    2.087528
