32

C      6.097907    0.678372    0.543968
O      5.396670   -0.340062   -0.162155
C      3.998890   -0.431388   -0.241219
C      3.443950   -1.486678   -0.970854
C      2.057630   -1.631327   -1.086434
C      1.194928   -0.702235   -0.460576
C      1.757912    0.365124    0.278238
C      3.146359    0.495382    0.383877
O      0.976846    1.254452    0.880889
C     -0.347850    1.202301    0.826559
C     -1.000016    0.185226    0.115054
C     -0.212332   -0.787415   -0.530604
O     -0.769223   -1.736622   -1.148026
C     -2.483681    0.154741    0.064011
C     -3.236773    0.295566    1.243049
C     -4.633994    0.275886    1.196779
C     -5.295768    0.121249   -0.028278
C     -4.553231   -0.011766   -1.205371
C     -3.155846    0.006794   -1.162387
O     -6.687403    0.100225   -0.086461
O      1.559787   -2.699697   -1.825829
H      7.188738    0.506777    0.439135
H      5.834886    0.645660    1.622386
H      5.852452    1.675081    0.120219
H      4.097364   -2.202728   -1.453922
H      3.549698    1.320976    0.954955
H     -0.920449    1.966767    1.336109
H     -2.742907    0.407866    2.200402
H     -5.200835    0.379829    2.113221
H     -5.059732   -0.125118   -2.155468
H     -2.600303   -0.077973   -2.088041
H     -7.253672    0.194734    0.748584
