36

C     -2.453808   -1.540448   -0.627894
C     -1.991267   -0.068355   -0.538178
C     -0.508957    0.024863   -0.027073
N     -0.436548    1.287541    0.689807
C     -1.744303    1.706838    1.017015
O     -1.976101    2.728256    1.716166
C     -2.798770    0.796333    0.495914
N     -3.369913    0.017960    1.604640
C      0.583228   -0.066629   -1.114494
C      1.955550   -0.199309   -0.504878
C      2.402033   -1.446138   -0.036843
C      3.664515   -1.567956    0.551412
C      4.490559   -0.447127    0.683360
C      4.047676    0.800834    0.224485
C      2.785707    0.925250   -0.364409
O      5.745804   -0.583058    1.271847
C     -2.166569    0.576234   -1.937993
H     -2.307229   -2.076550    0.332762
H     -1.867780   -2.081957   -1.400919
H     -3.528216   -1.593414   -0.905887
H     -0.335708   -0.789381    0.713164
H      0.424320    1.673639    1.137337
H     -3.607249    1.390682    0.012199
H     -2.634234   -0.549654    2.085802
H     -3.799151    0.668347    2.302732
H     -4.129542   -0.606402    1.250515
H      0.549776    0.829870   -1.771083
H      0.392726   -0.954702   -1.755136
H      1.770963   -2.321877   -0.126154
H      4.000291   -2.533682    0.907282
H      4.678906    1.674449    0.325865
H      2.454954    1.897789   -0.707405
H      6.367275    0.209680    1.382422
H     -1.794131    1.623385   -1.940969
H     -3.240229    0.590905   -2.225231
H     -1.624577    0.003784   -2.720182
