33

C     -2.273658   -1.399782    1.488004
C     -1.972604   -0.283825    0.506628
C     -0.625533    0.094716    0.230029
C     -0.359469    0.978354   -0.836139
C     -1.420691    1.565529   -1.535856
C     -2.743275    1.299589   -1.195253
C     -3.036637    0.364848   -0.179804
C     -4.447502    0.070350    0.153156
O     -4.847833    0.159258    1.345059
O     -5.334182   -0.320447   -0.846081
O     -3.741851    1.999855   -1.878005
C      1.039105    1.288472   -1.222021
O      1.262378    2.177541   -2.088932
C      2.168708    0.550542   -0.599412
C      1.913964   -0.285238    0.511336
C      0.529875   -0.384119    1.043520
O      0.347385   -0.793268    2.221985
C      2.979844   -0.996277    1.108271
C      4.278768   -0.861091    0.607309
C      4.534749   -0.033006   -0.486966
C      3.488746    0.668965   -1.092823
O      3.774831    1.475677   -2.190251
O      5.831088    0.096102   -0.983356
O      2.751387   -1.845989    2.191303
H     -2.309160   -0.994612    2.520817
H     -1.509368   -2.201546    1.419409
H     -3.235125   -1.905196    1.264635
H     -1.226053    2.263891   -2.340846
H     -6.301630   -0.528748   -0.629873
H     -4.722642    1.951946   -1.636182
H      5.092782   -1.406422    1.068480
H      6.610806   -0.399935   -0.567461
H      3.502797   -2.366131    2.629319
