29

C      4.326479    0.263544   -0.943409
C      3.011737   -0.356196   -0.598076
O      2.841559   -1.592817   -0.775655
N      1.968510    0.448638   -0.030275
C      0.646964   -0.099920    0.302835
C     -0.180046   -0.352038   -0.976232
C     -1.595988   -0.895544   -0.627031
C     -2.004507   -0.504183    0.817786
O     -1.544793    0.798600    1.121343
C     -0.128686    0.834947    1.283089
O      0.208965    0.513788    2.606960
C     -3.495648   -0.571499    1.013377
O     -4.018748   -1.619344    1.476385
O     -4.315942    0.493420    0.647645
O     -2.541909   -0.432671   -1.560189
O     -0.239958    0.810430   -1.770824
H      4.160527    1.202404   -1.511993
H      4.882458    0.494013   -0.011020
H      4.932247   -0.428548   -1.566214
H      2.184444    1.450767    0.173538
H      0.792953   -1.081025    0.810499
H      0.336396   -1.129987   -1.579042
H     -1.569100   -2.010711   -0.663130
H     -1.556052   -1.236973    1.531422
H      0.179018    1.886506    1.086220
H     -0.206454    1.209249    3.180735
H     -3.934326    1.340251    0.243630
H     -2.376947   -0.929491   -2.403954
H     -0.763153    1.494389   -1.278421
