32

C     -1.146265    3.615145   -0.427494
C     -1.264158    2.129995   -0.296215
C     -0.280366    1.291723   -0.852044
N     -0.361501   -0.070656   -0.734230
C     -1.415182   -0.625890   -0.061035
N     -1.547822   -1.968833    0.089836
C     -2.602487   -2.499474    0.765110
O     -2.693209   -3.749517    0.886240
N     -3.559417   -1.692066    1.310533
C     -3.500181   -0.335035    1.203082
O     -4.401888    0.378801    1.719726
C     -2.438875    0.254586    0.520359
N     -2.317019    1.595700    0.377833
C      0.700722   -0.911834   -1.312532
C      1.703877   -1.367263   -0.242322
C      2.483446   -0.191229    0.361266
C      3.546852   -0.682934    1.346409
O      4.218719    0.406434    1.917675
H     -0.239658    3.966540    0.108473
H     -1.069144    3.893639   -1.499645
H     -2.036280    4.117948    0.007098
H      0.556638    1.742892   -1.373492
H     -4.359508   -2.127153    1.824730
H      1.240174   -0.370573   -2.121813
H      0.251719   -1.808198   -1.793805
H      2.419237   -2.074295   -0.716552
H      1.169357   -1.914865    0.563754
H      2.977884    0.384601   -0.451478
H      1.784715    0.484285    0.900368
H      4.271006   -1.355516    0.832004
H      3.058999   -1.260853    2.160245
H      4.849615    0.743895    1.229228
