27

C     -2.092266   -3.567417    0.038684
O     -2.406616   -2.186351    0.186005
C     -1.475366   -1.139547    0.086936
C     -0.113052   -1.377913   -0.173526
C      0.802706   -0.314967   -0.266177
C      0.333051    1.000539   -0.098894
C     -1.026311    1.253118    0.161822
C     -1.923767    0.181772    0.254175
O     -3.268755    0.450493    0.514071
O     -1.524588    2.554754    0.334243
C     -0.735469    3.738421    0.269818
C      2.239416   -0.594496   -0.543093
O      2.593933   -1.762909   -0.862546
C      3.284955    0.489466   -0.476435
O      4.577098   -0.044426   -0.592102
H     -1.360727   -3.877626    0.814451
H     -3.018106   -4.164979    0.165381
H     -1.681607   -3.759795   -0.975001
H      0.239191   -2.392452   -0.299567
H      1.019704    1.829842   -0.179231
H     -3.963017   -0.282922    0.591511
H     -1.387504    4.618418    0.445231
H     -0.272212    3.834529   -0.734862
H      0.050451    3.716843    1.054122
H      3.191513    1.051890    0.480198
H      3.121483    1.197555   -1.315579
H      4.795861   -0.451841    0.286773
