26

C      1.543770   -2.036231   -1.442567
C      0.302513   -1.386410   -0.878786
C     -0.887883   -2.144236   -0.861892
N     -2.041198   -1.623927   -0.375047
C     -2.078682   -0.360840    0.103267
C     -3.240040    0.208188    0.621909
O     -4.313742   -0.451878    0.656020
N     -3.210111    1.485043    1.095159
C     -2.066847    2.230499    1.076931
O     -2.077876    3.407111    1.525235
N     -0.910874    1.716579    0.578139
C     -0.854374    0.451582    0.084382
N      0.303888   -0.080743   -0.423159
C      1.535812    0.737185   -0.424151
C      2.256336    0.626894    0.922644
O      3.427419    1.396556    0.911392
H      1.401165   -3.126249   -1.602677
H      1.794441   -1.575844   -2.420905
H      2.396455   -1.917421   -0.743706
H     -0.897018   -3.159885   -1.236369
H     -4.085724    1.904844    1.483652
H      1.295690    1.804289   -0.625460
H      2.220836    0.440991   -1.245093
H      2.493879   -0.435779    1.152973
H      1.593066    1.006507    1.728125
H      4.099101    0.883175    0.390671
