20

C      3.014781    1.006412    0.257273
C      1.627191    0.994140    0.401609
C      0.859466   -0.060626   -0.129176
C      1.545903   -1.092823   -0.805558
N      2.899592   -1.053733   -0.930571
C      3.640185   -0.037635   -0.419364
C     -0.625083   -0.043797    0.042731
C     -1.467124   -1.059632   -0.457354
C     -2.843386   -0.963633   -0.251142
C     -3.362475    0.126502    0.440862
C     -2.481477    1.099872    0.911944
O     -2.922824    2.096768    1.541104
O     -1.174116    0.980917    0.699879
O     -3.692883   -1.951524   -0.734132
H      3.600053    1.819479    0.667130
H      1.157801    1.813947    0.930541
H      1.029682   -1.933295   -1.238883
H      4.715352   -0.041402   -0.538966
H     -1.091569   -1.914616   -0.996638
H     -4.429071    0.214678    0.608710
