17

C      1.352270   -0.325826   -0.168689
C      0.014947   -0.566016    0.567899
C     -1.199311   -0.579250   -0.385463
N     -1.486867    0.738884   -0.955388
O      0.068866   -1.812641    1.213152
C      1.598887    1.123746   -0.463147
O      1.831448    1.499645   -1.642199
O      1.614446    2.054164    0.568697
H      2.191388   -0.676220    0.470152
H      1.386192   -0.922341   -1.106835
H     -0.146968    0.227681    1.335458
H     -1.034900   -1.314803   -1.204302
H     -2.089904   -0.920140    0.188994
H     -2.437938    0.720449   -1.389537
H     -1.473530    1.475077   -0.212788
H     -0.795592    0.967174   -1.704022
H      0.606568   -1.689584    2.039157
