50

C      1.504169   -0.080511    2.238996
C      0.255662   -0.781486    1.682817
C     -0.627620    0.087596    0.816800
N     -0.186771    1.319915    0.447045
C     -0.853033    2.083701   -0.446243
C     -0.359958    3.346860   -0.792260
C     -1.034171    4.125140   -1.736705
C     -2.200276    3.642894   -2.337759
C     -2.696333    2.380128   -1.997213
C     -2.022580    1.590264   -1.045570
C     -2.470311    0.311287   -0.673422
O     -3.498087   -0.170452   -1.229337
N     -1.784723   -0.421063    0.270274
C     -2.305020   -1.714086    0.686928
C     -3.639143   -1.804313    1.130520
C     -4.209207   -3.039138    1.441287
C     -3.457740   -4.205623    1.319182
C     -2.124721   -4.139278    0.913253
C     -1.525575   -2.901911    0.617598
C     -0.079960   -2.877137    0.303712
O      0.423260   -3.802926   -0.389296
N      0.765461   -1.848489    0.841379
C      2.167503   -1.683593    0.486038
C      2.656635   -0.445698    1.284167
C      2.886434    0.580347    0.211920
C      3.246717    1.924345    0.346946
C      3.367360    2.705733   -0.814286
C      3.126140    2.136966   -2.080332
C      2.769337    0.783171   -2.190304
C      2.664708    0.031149   -1.020469
N      2.283213   -1.324106   -0.927606
O      3.847545   -0.735425    1.972140
H      1.721348   -0.507578    3.243307
H      1.380663    1.015491    2.374638
H     -0.333724   -1.199442    2.529037
H      0.545190    3.724962   -0.333484
H     -0.651885    5.101671   -2.004367
H     -2.719794    4.247818   -3.069654
H     -3.600455    2.026431   -2.477206
H     -4.242839   -0.910358    1.224763
H     -5.238861   -3.091713    1.770829
H     -3.903715   -5.162857    1.556669
H     -1.549155   -5.055577    0.860885
H      2.748869   -2.602855    0.717086
H      3.418077    2.357922    1.323431
H      3.638476    3.750351   -0.735117
H      3.212665    2.745858   -2.970723
H      2.574332    0.337821   -3.157084
H      2.016009   -1.932119   -1.733349
H      4.095884    0.079912    2.481775
