27

C      3.850197   -0.223284   -1.032110
C      5.279944    0.223165   -0.964320
O      6.215660   -0.287583   -1.633729
N      5.475992    1.298154   -0.053780
C      4.183640    1.545661    0.463765
O      3.934439    2.438995    1.315366
N      3.200808    0.678370   -0.081061
N      1.837076    0.711154    0.262068
C      0.957680   -0.092606   -0.250134
C     -0.446339    0.009317    0.163734
C     -1.375321   -0.803247   -0.344932
C     -2.785364   -0.711745    0.061038
C     -3.805339   -1.513778   -0.417353
C     -4.951694   -1.090430    0.222993
C     -4.549315   -0.058592    1.047917
O     -3.258168    0.148792    0.935109
N     -5.402855    0.693114    1.912844
O     -4.929042    1.607549    2.616958
O     -6.748658    0.416229    1.976388
H      3.441198   -0.073153   -2.053612
H      3.753158   -1.278015   -0.698325
H      6.367089    1.790033    0.178605
H      1.248472   -0.838428   -0.980218
H     -0.720278    0.761112    0.895270
H     -1.096930   -1.553602   -1.076221
H     -3.724838   -2.310932   -1.144731
H     -5.951213   -1.486252    0.101122
