39

C      3.926314    1.683231   -0.110107
C      2.776061    0.768065    0.230001
C      1.768571    1.276025    0.978775
C      0.487697    0.547482    1.302724
C     -0.202810    0.113193   -0.014476
C     -1.712311   -0.012959   -0.054833
C     -2.627190    0.924031    0.327771
C     -4.106069    0.631658    0.211827
C     -2.235521    2.286208    0.847052
C     -2.090998   -1.176288   -0.934118
C     -0.772095   -1.639094   -1.553313
C      0.306601   -1.260806   -0.523538
C      1.705151   -1.116543   -1.180861
C      2.833356   -0.687547   -0.213045
C      0.307672   -2.394999    0.552492
H      4.401891    2.052753    0.823181
H      4.702712    1.170732   -0.714879
H      3.552976    2.550694   -0.694717
H      1.829070    2.313806    1.298957
H     -0.145414    1.233530    1.886044
H      0.695897   -0.283603    1.998360
H      0.019244    0.885686   -0.789124
H     -4.342029   -0.336251    0.702760
H     -4.713666    1.417194    0.708883
H     -4.406214    0.589865   -0.855730
H     -1.295275    2.644590    0.378563
H     -2.139171    2.256816    1.951866
H     -3.017036    3.034189    0.596402
H     -2.553651   -1.982113   -0.325009
H     -2.787078   -0.872283   -1.745125
H     -0.795620   -2.725629   -1.790307
H     -0.607698   -1.084706   -2.505273
H      1.662835   -0.388289   -2.020938
H      1.985437   -2.096725   -1.625945
H      3.791265   -0.871786   -0.744218
H      2.887660   -1.335628    0.680644
H      1.090909   -2.291866    1.322601
H      0.482262   -3.380987    0.070473
H     -0.663733   -2.441646    1.087943
