29

C      4.528355    0.011616    1.510856
C      5.071607   -0.039601    0.224293
C      4.231352   -0.060446   -0.892173
C      2.842022   -0.030735   -0.727144
C      2.285996    0.019534    0.571384
C      3.141759    0.041850    1.688770
C      0.886433    0.051349    0.698335
O      0.352428    0.126997    1.839735
C      0.086045    0.020423   -0.460132
C      0.727483   -0.024460   -1.708588
O      2.052751   -0.048471   -1.795365
C     -1.396973    0.039119   -0.390325
C     -2.085082   -0.840360    0.461802
C     -3.484265   -0.834226    0.525949
C     -4.214698    0.069883   -0.281187
C     -3.526253    0.938998   -1.134617
C     -2.131644    0.924311   -1.193275
O     -5.609354    0.137173   -0.267617
O     -4.100975   -1.737100    1.394521
H      5.183414    0.028133    2.372359
H      6.145630   -0.062649    0.092271
H      4.660049   -0.099183   -1.885729
H      2.743950    0.081509    2.695367
H      0.145511   -0.048855   -2.621048
H     -1.535159   -1.548901    1.069349
H     -4.077603    1.633290   -1.756248
H     -1.624932    1.614564   -1.856534
H     -6.196879   -0.441615    0.314985
H     -5.100968   -1.816266    1.510006
