31

C     -5.205484   -0.399451   -0.263159
C     -3.771801   -0.248943   -0.763383
C     -2.770000   -0.330344    0.393996
C     -1.331159   -0.178625   -0.112758
C     -0.328322   -0.259671    1.043269
C      1.083009   -0.109797    0.532758
C      1.656963    1.164207    0.352924
C      2.960367    1.278765   -0.152409
C      3.690870    0.134310   -0.503669
C      3.118022   -1.131750   -0.320771
C      1.820478   -1.252373    0.182336
C      5.098072    0.261278   -1.007760
O      0.932522    2.311747    0.675729
H     -5.339503   -1.383963    0.233692
H     -5.907147   -0.336525   -1.121458
H     -5.450394    0.411093    0.455954
H     -3.671734    0.731748   -1.277779
H     -3.561276   -1.055651   -1.499090
H     -2.878302   -1.312127    0.905871
H     -2.988786    0.477148    1.127308
H     -1.223556    0.802641   -0.625869
H     -1.111592   -0.986141   -0.846048
H     -0.547989    0.533308    1.791067
H     -0.439365   -1.235995    1.564886
H      3.401590    2.260476   -0.275380
H      3.674410   -2.026533   -0.571559
H      1.390428   -2.239344    0.301002
H      5.226873    1.207307   -1.575651
H      5.349812   -0.582171   -1.685486
H      5.799852    0.256620   -0.147811
H      1.323143    3.238756    0.553917
