22

C     -3.704401    0.134303    0.222020
N     -3.494921   -1.044440    0.869091
C     -2.154384   -1.100489    0.933297
C     -1.592348   -0.013268    0.355646
N     -2.561221    0.787909   -0.105466
C     -0.206560    0.123874    0.312257
N      0.537183   -0.877269    0.874686
C     -0.052277   -1.971014    1.455100
N     -1.413788   -2.089562    1.487574
N      0.423936    1.263817   -0.291943
C      1.875709    1.398940   -0.381399
C      2.418817    0.472013   -1.426086
O      2.204882    0.712326   -2.644125
N      3.155221   -0.693089   -1.053875
H     -4.690862    0.513553   -0.009885
H     -2.473100    1.701288   -0.602666
H      0.564579   -2.745173    1.890095
H     -0.163566    2.038838   -0.672629
H      2.131672    2.442794   -0.664334
H      2.337882    1.199243    0.609246
H      3.337785   -0.913321   -0.049765
H      3.519760   -1.341271   -1.786761
