46

C     -2.693912    2.593393   -1.202191
C     -2.634054    1.142690   -1.694633
C     -1.288095    0.852404   -2.378858
O     -0.256770    0.742028   -1.404543
C     -0.473991    0.049435   -0.211806
C     -1.793671   -0.242903    0.184305
N     -2.852346    0.218892   -0.559985
C     -4.135490   -0.086456   -0.201222
C     -4.410047   -0.878516    0.923450
C     -3.339007   -1.315101    1.724078
O     -3.562380   -1.962487    2.784441
C     -2.018692   -1.000695    1.356367
C     -0.920359   -1.410163    2.135361
C      0.381850   -1.076916    1.756201
C      0.613152   -0.348291    0.581902
N      1.957460   -0.035000    0.187034
C      2.494393   -0.573068   -1.068315
C      4.000480   -0.899884   -0.951811
N      4.652437   -0.249500    0.208448
C      4.129263    1.108897    0.424981
C      2.686889    1.005291    0.920346
C      6.111228   -0.217267    0.025622
F      1.424134   -1.494771    2.517771
C     -5.819427   -1.194264    1.260541
O     -6.721961   -0.346274    1.029696
O     -6.180815   -2.426895    1.801401
H     -1.900664    2.783867   -0.447995
H     -2.560744    3.294980   -2.053019
H     -3.682198    2.794546   -0.737247
H     -3.431725    1.003738   -2.459477
H     -1.362107   -0.110303   -2.929594
H     -1.028313    1.647342   -3.109946
H     -4.961516    0.288471   -0.795929
H     -1.065316   -1.987148    3.040570
H      2.347524    0.183917   -1.869094
H      1.939398   -1.490115   -1.366731
H      4.494974   -0.607269   -1.906792
H      4.116159   -2.000306   -0.843323
H      4.168229    1.701716   -0.517850
H      4.726784    1.644855    1.196138
H      2.173713    1.983321    0.796977
H      2.701961    0.750338    2.002028
H      6.601694    0.156183    0.950035
H      6.496618   -1.242967   -0.161416
H      6.396043    0.439429   -0.826693
H     -5.520781   -3.189172    1.890777
