15

C     -2.319173    0.569540    0.583627
O     -0.939762    0.576008    0.292651
C     -0.570460   -0.672854   -0.255530
C      0.900090   -0.698703   -0.575940
O      1.374279   -1.708728   -1.074977
C      1.785759    0.493523   -0.306654
O      3.118303    0.227498   -0.655632
H     -2.925102    0.423063   -0.338185
H     -2.594369    1.554974    1.012279
H     -2.567982   -0.207389    1.340468
H     -0.776113   -1.494156    0.468368
H     -1.128927   -0.865114   -1.200038
H      1.426984    1.350821   -0.913890
H      1.718603    0.778838    0.767701
H      3.497872   -0.327321    0.075304
