37

C     -1.985360   -2.891849   -0.571124
N     -1.664565   -1.594631    0.056892
C     -2.763526   -0.648956   -0.211683
C     -2.570840    0.619418    0.627174
C     -1.178006    1.167040    0.457311
C     -0.156138    0.414571    0.015113
C     -0.380198   -1.044301   -0.455510
C      0.818271   -1.975011   -0.055142
C      2.130015   -1.281704   -0.258819
C      3.432731   -1.765794   -0.334649
N      4.309106   -0.726194   -0.384320
C      3.558955    0.391649   -0.318364
C      3.967384    1.723948   -0.286871
C      2.961991    2.710760   -0.168617
C      1.592959    2.344811   -0.071932
C      1.222248    0.977363   -0.095101
C      2.244813    0.066271   -0.234840
C     -3.627562    1.673581    0.254577
O     -3.604576    2.739879    1.167326
H     -2.992960   -3.241914   -0.258038
H     -1.959457   -2.823558   -1.681442
H     -1.278285   -3.674417   -0.228994
H     -3.740602   -1.100178    0.074733
H     -2.806522   -0.395312   -1.297117
H     -2.702659    0.350112    1.698657
H     -0.989425    2.164058    0.829763
H     -0.410719   -1.006426   -1.569415
H      0.816238   -2.896900   -0.673524
H      0.730877   -2.257263    1.015974
H      3.723974   -2.807836   -0.329923
H      5.350418   -0.785811   -0.432551
H      5.013801    1.993132   -0.347121
H      3.239443    3.756572   -0.148461
H      0.850245    3.126164    0.004725
H     -3.470635    2.031990   -0.790581
H     -4.637600    1.212369    0.297438
H     -3.043834    3.454368    0.766964
