17

C     -1.003328   -0.720286   -0.221451
C      0.466407   -0.409656    0.133540
C      0.858680    1.008006   -0.328404
O      2.159327    1.323210    0.093839
N      1.341155   -1.399800   -0.501451
C     -1.963773    0.122563    0.567792
O     -2.214927   -0.169809    1.766541
O     -2.561130    1.243450   -0.002036
H     -1.222920   -1.787459   -0.000032
H     -1.172149   -0.570267   -1.309999
H      0.590317   -0.474291    1.239480
H      0.170487    1.753383    0.121830
H      0.765102    1.093918   -1.436637
H      2.772100    1.083625   -0.649511
H      1.065041   -2.351926   -0.167235
H      2.315873   -1.258412   -0.150076
H     -2.366261    1.513749   -0.958622
