19

C     -1.895551    0.108599    0.272348
C     -1.291502   -1.145645   -0.388526
N      0.175961   -1.182228   -0.271392
C      0.757836    0.141673   -0.537900
C      0.263519    1.168012    0.514414
N     -0.941706    0.697779    1.216057
C      2.261606    0.056564   -0.531136
O      2.922983    0.563281   -1.475329
O      2.936297   -0.553990    0.523178
H     -2.169276    0.854693   -0.508459
H     -2.826947   -0.169020    0.812283
H     -1.702797   -2.051723    0.106212
H     -1.593881   -1.180944   -1.459621
H      0.533201   -1.857974   -0.987978
H      0.431074    0.483094   -1.548726
H      1.046669    1.360092    1.280459
H      0.056833    2.139183    0.009861
H     -1.398487    1.524156    1.668306
H      2.434166   -0.955604    1.305949
