29

C      1.428521   -1.241470    0.327502
C      1.313485    0.154250    0.406309
C      2.501904    0.906220    0.436946
O      2.462023    2.166186    0.473244
N      3.707236    0.274437    0.424806
C      3.786903   -1.082173    0.367392
O      4.913692   -1.646751    0.357129
N      2.652642   -1.829874    0.316642
C     -0.046337    0.822231    0.376966
C     -0.544793    1.001964   -1.055849
C     -2.046428    0.950416   -0.893929
C     -2.216586    0.083228    0.365241
O     -0.996327    0.052144    1.083765
C     -2.627766   -1.350205    0.008978
O     -2.757067   -2.109504    1.178868
O     -2.612516    2.229582   -0.718049
O     -0.085589    2.182193   -1.673881
H      0.542953   -1.862060    0.271839
H      4.586110    0.840608    0.455056
H      2.716786   -2.871722    0.263990
H      0.013990    1.807130    0.891317
H     -0.231973    0.133243   -1.678919
H     -2.512392    0.487862   -1.792444
H     -3.007039    0.512081    1.020712
H     -3.601874   -1.332671   -0.529752
H     -1.858411   -1.808560   -0.652652
H     -3.011174   -3.023378    0.886991
H     -2.262228    2.613748    0.128430
H     -0.207747    2.940845   -1.046650
