27

C     -3.860216    0.118868   -0.410349
O     -2.743424    0.530935    0.345242
C     -1.950104   -0.583881    0.716451
C     -0.604032   -0.567618   -0.032343
C      0.201276    0.729265    0.247198
C      1.508833    0.856620   -0.584342
C      2.458127   -0.371051   -0.502491
C      2.893626   -0.659057    0.910734
O      2.674250   -1.747825    1.417229
O      3.593351   -0.171299   -1.307164
O      1.172734    1.099764   -1.928138
O      0.514741    0.812174    1.616404
O     -0.835398   -0.700531   -1.411369
H     -4.424923    1.019083   -0.728343
H     -4.541937   -0.510101    0.203820
H     -3.548096   -0.426843   -1.328163
H     -2.443603   -1.573173    0.554189
H     -1.760877   -0.526197    1.809039
H     -0.011758   -1.436842    0.335691
H     -0.432518    1.602797   -0.042187
H      2.053690    1.745848   -0.183755
H      1.930300   -1.260497   -0.907975
H      3.415087    0.101510    1.483171
H      4.067693    0.633069   -0.967521
H      1.927262    1.600941   -2.334942
H     -0.202709    1.339494    2.055745
H     -1.051375   -1.655450   -1.577050
