23

C      1.149790   -1.528268   -0.487931
C      2.515748   -1.791418   -0.348062
C      3.382453   -0.792317    0.102653
C      2.877494    0.476894    0.410990
C      1.511712    0.743841    0.273509
C      0.629839   -0.260113   -0.169159
C     -0.820527    0.006100   -0.327056
O     -1.491458   -0.693533   -1.134665
N     -1.476303    1.033823    0.434929
C     -2.876745    1.389729    0.220752
C     -3.773045    0.349865    0.820953
O     -3.888683    0.271805    2.072251
O     -4.461814   -0.550533    0.013095
O      4.741088   -1.068877    0.237400
H      0.497973   -2.320597   -0.834852
H      2.901003   -2.773753   -0.590432
H      3.543507    1.259866    0.750839
H      1.158137    1.742682    0.490344
H     -0.967209    1.515384    1.208901
H     -3.086781    2.366532    0.707518
H     -3.077811    1.507805   -0.865662
H     -4.383396   -0.519372   -0.996279
H      5.395027   -0.365546    0.560799
