17

C     -1.230376   -0.141107   -0.998768
C     -0.639629    0.216520    0.380022
C      0.716309   -0.485993    0.635639
C      1.756886   -0.022990   -0.342342
O      2.184153   -0.808652   -1.230371
O      2.238031    1.281683   -0.280988
O      1.169582   -0.193710    1.932218
O     -1.558552   -0.103712    1.395691
O     -2.482180    0.467191   -1.168567
H     -0.542623    0.177337   -1.814550
H     -1.359507   -1.241739   -1.077526
H     -0.477094    1.316664    0.411664
H      0.587659   -1.589395    0.522215
H      2.934060    1.610130   -0.939593
H      0.715097   -0.825014    2.549327
H     -1.702943   -1.086175    1.369908
H     -2.308872    1.428963   -1.343979
