17

C     -0.110158   -1.240578   -0.018843
C     -1.577904   -0.926349   -0.338021
C     -2.006515    0.318376    0.373025
O     -3.204979    0.469235    0.730006
N     -1.057210    1.367230    0.575741
C      0.313772    1.191302    0.197852
C      0.789504   -0.022709   -0.138539
C      2.212288   -0.209242   -0.520771
O      2.545626   -1.215695   -1.200380
O      3.207809    0.688248   -0.133591
H     -0.038338   -1.626522    1.021239
H      0.227142   -2.049801   -0.701010
H     -1.695283   -0.770791   -1.431988
H     -2.216381   -1.782997   -0.031349
H     -1.372384    2.289780    0.950574
H      0.944714    2.068346    0.158589
H      3.038297    1.452168    0.507466
