20

C      0.324075   -0.805819   -0.479414
C      1.382841   -0.003918   -0.025610
C      1.102865    1.279007    0.468322
C     -0.210598    1.751074    0.525546
C     -1.273477    0.942077    0.086221
C     -1.002264   -0.343269   -0.442247
C     -2.068464   -1.206887   -0.996412
O     -2.957193   -0.716763   -1.741897
O     -2.081965   -2.576483   -0.741655
O     -2.578070    1.426909    0.215414
O     -0.441651    3.029374    1.034498
C      2.775449   -0.503240   -0.080033
O      3.729093    0.218761    0.319036
O      3.046256   -1.777496   -0.572332
H      0.533884   -1.785479   -0.891721
H      1.903421    1.919604    0.817742
H     -1.407237   -3.008302   -0.121821
H     -3.401174    0.863778    0.049260
H     -1.371415    3.425663    1.100690
H      3.995624   -2.128592   -0.613447
