44

C     -5.680860    0.014166    0.536354
C     -5.090737    0.112070   -0.727544
C     -3.698032    0.108751   -0.852502
C     -2.890376    0.007174    0.290159
C     -3.485984   -0.090887    1.556625
C     -4.879053   -0.087222    1.677451
C     -1.413185    0.003480    0.159826
C     -0.695875    1.224398    0.198314
C     -1.365477    2.460474    0.360140
C     -0.656502    3.659473    0.397549
C      0.727965    3.656012    0.275401
C      1.413480    2.453527    0.114954
C      0.719762    1.220861    0.073397
C      1.413186   -0.003581   -0.089585
C      0.695877   -1.224499   -0.128077
C      1.365476   -2.460568   -0.289953
C      0.656504   -3.659571   -0.327334
C     -0.727958   -3.656118   -0.205113
C     -1.413471   -2.453635   -0.044646
C     -0.719759   -1.220964   -0.003140
C      2.890375   -0.007258   -0.219937
C      3.485966    0.091611   -1.486349
C      4.879034    0.088107   -1.607182
C      5.680855   -0.013932   -0.466157
C      5.090748   -0.112665    0.797690
C      3.698044   -0.109502    0.922653
H     -6.758976    0.016862    0.631467
H     -5.712485    0.190497   -1.609947
H     -3.248478    0.184941   -1.834904
H     -2.871749   -0.169747    2.445169
H     -5.337079   -0.162943    2.655123
H     -2.441568    2.514559    0.459338
H     -1.184569    4.596209    0.521999
H      1.274310    4.590060    0.305080
H      2.490575    2.502227    0.024213
H      2.441562   -2.514640   -0.389225
H      1.184567   -4.596303   -0.451819
H     -1.274295   -4.590172   -0.234742
H     -2.490559   -2.502341    0.046168
H      2.871722    0.171005   -2.374839
H      5.337048    0.164468   -2.584808
H      6.758970   -0.016490   -0.561284
H      5.712504   -0.191590    1.680045
H      3.248496   -0.186306    1.905007
