20

C      0.131372   -1.318986   -1.108339
C      1.500553   -1.474370   -0.877139
C      2.171079   -0.620233    0.003543
C      1.462432    0.399071    0.661182
C      0.088157    0.554058    0.428314
C     -0.587670   -0.298601   -0.464081
C     -2.076761   -0.148228   -0.705213
C     -2.431525    1.256005   -1.121163
O     -1.986354    1.722122   -2.158077
O     -2.802751   -0.532732    0.435639
O      2.124002    1.252595    1.542775
O      3.537945   -0.799766    0.213359
H     -0.366124   -1.996358   -1.791246
H      2.042771   -2.263124   -1.383179
H     -0.451740    1.341069    0.940308
H     -2.390290   -0.817680   -1.535611
H     -3.091694    1.860442   -0.507073
H     -2.577525    0.097166    1.169803
H      1.635897    1.995304    2.029632
H      4.068225   -0.207753    0.841354
