34

C     -2.432852    1.831908   -0.916456
C     -3.352871    1.496562    0.254707
C     -2.469736    0.846546    1.326376
N     -1.182858    0.599234    0.686375
C     -1.176168    0.999489   -0.716370
C     -0.044983    0.053059    1.391592
O     -0.203130   -0.402437    2.555638
C      1.330221   -0.018611    0.755269
C      1.450719   -1.276743   -0.126360
C      2.616916   -1.167097   -1.057967
C      3.921180   -1.519187   -0.791410
N      4.694283   -1.176970   -1.844347
C      3.834428   -0.621207   -2.724593
N      2.566402   -0.591780   -2.268971
N      2.392525   -0.003322    1.770845
C     -3.075950   -0.441549    1.817072
O     -3.529679   -0.519837    2.991949
O     -3.153204   -1.541660    0.965010
H     -2.914323    1.596482   -1.893438
H     -2.170088    2.911010   -0.879697
H     -3.847663    2.416581    0.645506
H     -4.147106    0.804542   -0.102463
H     -2.327406    1.557394    2.172793
H     -0.288540    1.615177   -0.969903
H     -1.208534    0.092893   -1.358959
H      1.475900    0.881749    0.124169
H      0.535713   -1.410754   -0.735913
H      1.555307   -2.188257    0.505203
H      4.292581   -1.972008    0.117844
H      4.138135   -0.218455   -3.683421
H      1.731903   -0.178692   -2.745497
H      2.323409   -0.871736    2.359417
H      2.252334    0.823793    2.401488
H     -3.586866   -2.406117    1.268590
