12

C      1.626334   -1.001497    0.035535
C      0.984178    0.149709    0.241919
C     -0.231177    0.510337   -0.570725
C     -1.483795   -0.099199   -0.132129
N     -1.226682    1.325716    0.158478
H      1.274018   -1.710343   -0.707897
H      2.512343   -1.240966    0.614454
H      1.368748    0.849798    0.977852
H     -0.145676    0.775636   -1.645495
H     -2.254753   -0.221815   -0.921090
H     -1.452024   -0.740003    0.778149
H     -0.971513    1.402628    1.170949
