37

C     -5.025878   -0.533371   -2.461087
C     -3.798958    0.064806   -2.761323
C     -2.821653    0.195626   -1.769716
C     -3.069915   -0.265946   -0.466036
C     -4.302121   -0.875558   -0.174690
C     -5.276576   -1.004477   -1.169371
C     -2.005127   -0.151020    0.594413
C     -0.996558   -1.308761    0.504274
C      0.130181   -1.089300    1.485665
O     -0.030906   -1.377926    2.703440
N      1.359343   -0.496586    1.045648
C      2.461828   -0.250622    1.973469
C      3.605169    0.412555    1.267688
O      4.594425   -0.277701    0.900393
N      3.550359    1.815638    0.975399
C      4.600295    2.502313    0.228187
C      4.532236    2.129486   -1.217893
O      3.613013    2.592126   -1.944870
O      5.466655    1.248812   -1.753469
N     -1.661464   -2.594481    0.739215
H     -5.780858   -0.634799   -3.229973
H     -3.603886    0.424520   -3.763331
H     -1.872073    0.654306   -2.016673
H     -4.506539   -1.252070    0.819953
H     -6.225134   -1.472297   -0.939393
H     -1.470636    0.816689    0.466655
H     -2.470678   -0.130598    1.604897
H     -0.571247   -1.324630   -0.524008
H      1.456701   -0.229425    0.039002
H      2.113441    0.406028    2.799367
H      2.798591   -1.215085    2.412007
H      2.731770    2.371818    1.311030
H      4.463917    3.601129    0.323490
H      5.596365    2.246004    0.649042
H      5.424759    0.977347   -2.728428
H     -2.059034   -2.616160    1.706898
H     -0.949806   -3.358387    0.671999
