45

C     -4.509398    1.320147    1.284690
C     -4.768682    0.379367    0.098083
C     -5.890061   -0.606143    0.452784
C     -3.497273   -0.400648   -0.315781
C     -2.327869    0.484207   -0.811293
C     -1.148617   -0.387317   -1.153798
O     -1.057766   -0.895874   -2.305084
N     -0.164281   -0.687650   -0.152952
C      1.060988   -1.436656   -0.459677
C      2.123225   -0.512767   -1.102847
C      2.333176    0.851412   -0.409647
C      2.921021    0.765932    1.007735
N      4.163073   -0.006894    1.032795
C      5.337775    0.389746    0.633139
N      6.434502   -0.520546    0.709058
N      5.561716    1.713313    0.129474
C      1.587713   -2.164710    0.753229
O      0.901361   -2.242698    1.808250
O      2.816333   -2.815921    0.687322
N     -2.697008    1.293828   -1.977223
H     -4.056866    0.765399    2.134473
H     -3.833759    2.148259    0.987881
H     -5.460859    1.780999    1.626261
H     -5.126718    0.985584   -0.761566
H     -6.820632   -0.055565    0.708448
H     -6.111272   -1.265390   -0.413702
H     -5.597681   -1.238050    1.319101
H     -3.146900   -1.002992    0.552506
H     -3.763930   -1.118939   -1.123332
H     -2.009340    1.167140    0.005421
H     -0.264659   -0.240357    0.786813
H      0.818386   -2.232983   -1.197114
H      1.795020   -0.301176   -2.143968
H      3.094676   -1.044545   -1.196041
H      1.372399    1.407610   -0.369286
H      3.014461    1.454576   -1.045582
H      3.088685    1.783969    1.418905
H      2.186180    0.282546    1.681906
H      6.295020   -1.490205    1.071368
H      7.388463   -0.229841    0.400341
H      6.511902    1.985387   -0.206427
H      4.818284    2.443633    0.108747
H      3.179730   -3.323029    1.485329
H     -3.262634    0.720723   -2.645521
H     -3.287884    2.097120   -1.663415
