40

C      0.614992   -0.765841   -3.537477
O      0.265968   -0.601732   -2.166962
C      1.174109   -0.288216   -1.141010
C      2.549807   -0.128038   -1.392013
C      3.445459    0.153133   -0.343340
C      2.964006    0.274263    0.966906
C      1.589288    0.120134    1.219446
C      0.692879   -0.148085    0.174546
C     -0.750618   -0.298670    0.477728
C     -1.172373   -1.265973    1.401903
O     -2.460622   -1.418846    1.688076
C     -3.412051   -0.677086    1.130942
C     -3.078288    0.328942    0.195891
C     -1.723213    0.519799   -0.124552
O     -1.378644    1.426896   -0.932264
C     -4.101363    1.105791   -0.377593
C     -5.435356    0.879810   -0.025430
C     -5.762669   -0.119667    0.900968
C     -4.750427   -0.894588    1.476333
O     -7.089765   -0.350124    1.256342
O      3.883680    0.549746    1.991635
C      3.541527    0.697826    3.365958
O      4.822932    0.316650   -0.562690
C      5.456537    0.222542   -1.834507
H      1.053999    0.173606   -3.934799
H     -0.300043   -1.002818   -4.117832
H      1.334399   -1.604124   -3.650815
H      2.924002   -0.229043   -2.399473
H      1.204695    0.219751    2.226005
H     -0.447716   -1.905711    1.889566
H     -3.874254    1.883970   -1.095907
H     -6.214994    1.482730   -0.473406
H     -5.004703   -1.665908    2.192868
H     -7.846664    0.193463    0.858205
H      2.838382    1.547604    3.495077
H      3.084835   -0.239180    3.748992
H      4.462190    0.907594    3.947926
H      5.049452    0.993690   -2.522151
H      5.305682   -0.791050   -2.262405
H      6.544943    0.396761   -1.710686
