32

C      4.795907   -1.724124    0.510693
C      3.289650   -1.544937    0.353099
N      2.958382   -0.159769    0.019864
C      1.604644    0.261962   -0.179431
N      0.579877   -0.623159   -0.063450
C     -0.702083   -0.218240   -0.252250
N     -0.957031    1.080284   -0.562308
C      0.059922    1.970061   -0.679629
N      1.340900    1.557472   -0.487245
O     -0.225699    3.300286   -0.997347
C      0.784751    4.291955   -1.137304
N     -1.771101   -1.165671   -0.129124
C     -3.181069   -0.792387   -0.284678
C     -4.032280   -2.035982   -0.560703
C     -3.676688   -0.074989    0.974481
H      5.312824   -1.463856   -0.437397
H      5.174824   -1.072499    1.326551
H      5.021698   -2.781632    0.762981
H      2.926946   -2.216780   -0.454586
H      2.789310   -1.826437    1.304784
H      3.718629    0.551671   -0.078497
H      0.310578    5.262390   -1.390070
H      1.484065    4.010046   -1.952806
H      1.344041    4.402322   -0.184113
H     -1.520232   -2.163452    0.059013
H     -3.288512   -0.110288   -1.157007
H     -3.977235   -2.746087    0.292395
H     -5.092968   -1.747510   -0.722067
H     -3.666468   -2.547288   -1.476488
H     -3.570379   -0.733597    1.863088
H     -4.744685    0.208529    0.859842
H     -3.090517    0.851705    1.146822
