17

C     -2.704123   -0.361265    0.288068
C     -1.230028   -0.132528    0.130673
C     -0.379905   -0.210359    1.243052
C      0.998860   -0.033961    1.092134
C      1.551514    0.210424   -0.176964
C      0.697056    0.269555   -1.292632
C     -0.681414    0.092930   -1.139866
C      3.010942    0.396489   -0.333177
O      3.511312    0.613585   -1.468865
O      3.851337    0.334624    0.772564
H     -3.272671    0.203728   -0.481095
H     -3.048862   -0.021309    1.287897
H     -2.923415   -1.443792    0.178104
H     -0.784225   -0.406988    2.228464
H      1.631066   -0.092730    1.969188
H      1.093379    0.448705   -2.284335
H     -1.320825    0.132891   -2.013209
