47

C      6.358465    1.302828   -0.122137
C      5.623982    0.697725   -1.317859
C      4.744934   -0.508260   -0.940097
C      3.622412   -0.207361    0.070268
C      2.558936    0.754849   -0.485246
C      1.447410    1.075438    0.531493
C      0.611139   -0.129684    1.000637
C     -0.139930   -0.823247   -0.148211
C     -1.026405   -1.987001    0.332213
C     -2.172662   -1.595865    1.288342
C     -3.101246   -0.477584    0.780098
C     -3.830711   -0.860042   -0.529567
N     -4.826924    0.139392   -0.996045
C     -4.214062    1.449309   -1.289314
C     -5.958141    0.290351   -0.060353
O     -5.337904   -0.331088   -2.163709
H      6.897923    0.513949    0.443908
H      7.098274    2.048377   -0.482434
H      5.646715    1.824247    0.551013
H      5.023262    1.480702   -1.825195
H      6.384141    0.351083   -2.051100
H      5.396378   -1.303238   -0.515591
H      4.293635   -0.922901   -1.867838
H      4.047516    0.193404    1.014406
H      3.140992   -1.177700    0.312566
H      3.041453    1.719560   -0.745842
H      2.123032    0.346802   -1.421080
H      1.907490    1.553293    1.423954
H      0.764280    1.827634    0.079611
H      1.250259   -0.861668    1.537189
H     -0.124024    0.258000    1.736222
H     -0.743703   -0.084628   -0.716245
H      0.599575   -1.253308   -0.855682
H     -1.451951   -2.500180   -0.556295
H     -0.384360   -2.735864    0.845356
H     -1.746066   -1.289094    2.266822
H     -2.783398   -2.503098    1.488924
H     -2.516635    0.455168    0.650591
H     -3.844728   -0.290769    1.581260
H     -3.072358   -1.011555   -1.329301
H     -4.332480   -1.843673   -0.382671
H     -3.906184    1.972047   -0.358194
H     -4.938877    2.108092   -1.817712
H     -3.322778    1.330669   -1.944470
H     -6.777735    0.875961   -0.533636
H     -5.656812    0.831130    0.862111
H     -6.372129   -0.702201    0.223838
