46

C      1.259353    1.313292    0.919544
C      2.540670    0.475105    1.075050
N      3.236956    0.350790   -0.208521
C      2.439100   -0.030856   -1.377699
C      1.212869    0.879542   -1.484270
N      0.428434    0.895538   -0.232610
C     -0.313389   -0.364209    0.002899
C     -1.653585   -0.066361    0.683943
C     -2.466172   -1.350074    0.891218
C     -3.793443   -1.044552    1.532941
O     -3.873181   -1.126613    2.789251
C     -4.989838   -0.622050    0.750373
C     -6.227389   -0.451753    1.403377
C     -7.361967   -0.054499    0.689646
C     -7.279628    0.180174   -0.683709
C     -6.061460    0.018526   -1.345759
C     -4.922938   -0.379162   -0.637940
F     -8.381162    0.566001   -1.373630
C      4.667228    0.183840   -0.221062
C      5.443353    0.689873   -1.277056
C      6.829429    0.522297   -1.252681
C      7.431622   -0.136805   -0.180417
C      6.634222   -0.615647    0.860305
N      5.285998   -0.444142    0.819271
H      1.547015    2.378719    0.782436
H      0.674937    1.266083    1.862724
H      2.304373   -0.535988    1.467601
H      3.195657    0.979342    1.819337
H      2.119104   -1.089950   -1.274404
H      3.025679    0.051431   -2.316041
H      0.578271    0.560429   -2.339840
H      1.551453    1.913815   -1.714119
H      0.272773   -1.076758    0.621106
H     -0.534077   -0.877496   -0.960145
H     -1.476612    0.411103    1.671317
H     -2.226843    0.647193    0.053319
H     -2.615887   -1.884794   -0.070380
H     -1.894280   -2.038057    1.552352
H     -6.321802   -0.628392    2.467505
H     -8.306097    0.071007    1.204093
H     -5.996785    0.203176   -2.410463
H     -3.998080   -0.484757   -1.186364
H      4.987308    1.228047   -2.097485
H      7.436647    0.909502   -2.060674
H      8.505429   -0.269273   -0.152650
H      7.086735   -1.122635    1.701965
