44

C      4.427803    0.421696   -1.043280
N      3.223036    1.096504   -0.531435
C      2.124758    1.289532   -1.477596
C      1.024145    1.904915   -0.604027
C      1.306792    1.350079    0.800912
C      2.555764    0.476643    0.612983
C      2.152042   -0.989839    0.299294
C      1.299290   -1.123763   -0.996856
C      1.651789   -0.064871   -2.076962
O     -0.092653   -1.024516   -0.686886
C     -0.812732   -2.023845   -0.019901
O     -0.269844   -3.129064    0.254814
C     -2.253551   -1.796039    0.341497
C     -3.154408   -2.005973   -0.889654
O     -4.497279   -1.749972   -0.573879
C     -2.425172   -0.430349    0.985857
C     -2.483159   -0.327048    2.388268
C     -2.583523    0.923644    3.005002
C     -2.614931    2.085701    2.231897
C     -2.545300    1.999744    0.840221
C     -2.447758    0.751857    0.218068
H      4.861622    1.021049   -1.871311
H      5.187326    0.358581   -0.235471
H      4.230341   -0.601535   -1.418552
H      2.422055    1.989986   -2.288633
H      1.126484    3.012235   -0.597186
H      0.004197    1.648016   -0.958381
H      0.441243    0.782349    1.205539
H      1.535121    2.187169    1.496909
H      3.204539    0.516119    1.515410
H      3.064790   -1.615391    0.209763
H      1.599680   -1.404584    1.169354
H      1.484200   -2.127076   -1.441633
H      0.767298    0.111890   -2.728393
H      2.436667   -0.465100   -2.752484
H     -2.546563   -2.575824    1.081404
H     -2.848328   -1.337945   -1.721587
H     -3.044686   -3.050637   -1.260673
H     -4.822570   -2.533301   -0.059032
H     -2.444202   -1.215011    3.006769
H     -2.629988    0.992232    4.084275
H     -2.686212    3.053159    2.711730
H     -2.556993    2.901937    0.242526
H     -2.371127    0.716648   -0.859522
