27

C     -0.327855    0.023256    0.340736
C     -1.424439   -0.340944   -0.671725
C     -2.842010   -0.283689   -0.059843
C     -3.836723   -0.860007   -1.032361
O     -4.098308   -0.260482   -2.109088
O     -4.457522   -2.071409   -0.754629
N     -3.224678    1.088266    0.302961
C      1.068095   -0.193657   -0.256062
N      2.112453    0.168681    0.708363
C      3.392026    0.081810    0.457063
N      4.336315    0.459358    1.463769
N      3.881503   -0.384781   -0.808696
H     -0.425414    1.090907    0.631890
H     -0.435613   -0.607436    1.250411
H     -1.362111    0.343170   -1.546947
H     -1.237686   -1.376098   -1.036199
H     -2.858547   -0.914102    0.858115
H     -3.093120    1.737667   -0.506811
H     -4.227945    1.111536    0.599401
H     -2.651084    1.420320    1.110770
H      1.180220   -1.264728   -0.534935
H      1.172560    0.436072   -1.167213
H      1.816644    0.515809    1.650022
H      5.361470    0.395170    1.277146
H      4.020866    0.803917    2.397832
H      4.910117   -0.442083   -0.977474
H      3.250786   -0.676520   -1.586497
