21

C     -1.881177   -0.121889   -0.447356
C     -1.334263    1.132331    0.244560
C      0.168422    1.294742   -0.017012
C      0.948443    0.041080    0.429767
C      0.390742   -1.216857   -0.267569
C     -1.112518   -1.372777   -0.005350
N      2.378457    0.196517    0.140513
H     -1.802199   -0.004830   -1.550682
H     -2.955888   -0.242507   -0.191861
H     -1.518160    1.065548    1.339524
H     -1.871966    2.026147   -0.138669
H      0.335474    1.480108   -1.101260
H      0.536845    2.181545    0.542840
H      0.821781   -0.079928    1.530375
H      0.568651   -1.154138   -1.364053
H      0.917458   -2.118329    0.113886
H     -1.493120   -2.253755   -0.565633
H     -1.286199   -1.554965    1.078101
H      2.752334    1.034626    0.642424
H      2.535816    0.312986   -0.887342
H      2.901068   -0.645656    0.474797
