18

C     -1.570711   -2.093381    0.551562
N     -0.255009   -1.866417    0.355778
C     -0.179330   -0.536952    0.138466
C     -1.446886    0.020279    0.210227
N     -2.313470   -0.973119    0.473015
C     -1.855064    1.422721    0.005176
O     -3.042377    1.766670    0.249499
O     -0.957320    2.367617   -0.479338
N      1.057553    0.168073   -0.058923
C      2.302892   -0.488240   -0.339793
O      2.347114   -1.733783   -0.527346
N      3.505908    0.274898   -0.422638
H     -1.983884   -3.073029    0.752106
H     -3.349704   -0.902557    0.582108
H     -1.242204    3.328398   -0.627517
H      1.075809    1.204892    0.043916
H      4.415020   -0.194288   -0.631720
H      3.491663    1.308217   -0.274578
