19

C     -2.451770    1.135182    0.438268
N     -1.692876    0.032632   -0.157541
C     -0.246930    0.266371   -0.030929
C      0.547169   -0.894719   -0.651287
C      2.062186   -0.658324   -0.598597
C      2.584618   -0.718012    0.804089
O      2.850865    0.342945    1.427759
O      2.746995   -1.945570    1.433685
H     -2.220595    1.229590    1.522104
H     -2.217957    2.094104   -0.074422
H     -3.540744    0.940601    0.331196
H     -1.951596   -0.043271   -1.169287
H     -1.951326   -0.855573    0.333036
H      0.029467    1.212184   -0.549998
H      0.024762    0.361584    1.044370
H      0.297029   -1.844879   -0.129831
H      0.249408   -1.005196   -1.716769
H      2.569050   -1.446410   -1.195672
H      2.312245    0.322085   -1.060176
