22

C      3.930143    0.509664    1.010916
C      3.427691   -0.156784   -0.259685
O      2.004028   -0.159252   -0.265692
C      1.253906   -0.707755   -1.311735
O      1.830047   -1.229093   -2.304790
C     -0.215884   -0.683824   -1.267476
C     -0.885753   -0.146573   -0.244183
C     -2.357826   -0.136546   -0.226427
C     -3.029619    0.399312    0.794209
C     -4.524204    0.408759    0.810843
H      5.040504    0.513255    1.018772
H      3.565216    1.557510    1.059393
H      3.564448   -0.045600    1.900551
H      3.805195   -1.201599   -0.300388
H      3.805965    0.403143   -1.142404
H     -0.760038   -1.119354   -2.098026
H     -0.346725    0.290346    0.589009
H     -2.904236   -0.571757   -1.056364
H     -2.496899    0.837777    1.630334
H     -4.909711    0.973768   -0.064091
H     -4.885764    0.896565    1.740180
H     -4.910483   -0.631961    0.778449
