24

C      2.725805    0.044876    0.399681
C      1.454060    0.667229   -0.198291
C      0.291659   -0.351352   -0.250096
C     -0.966326    0.243367   -0.880706
C     -2.059264   -0.478842   -0.146978
C     -1.422568   -0.732442    1.216674
O     -0.022721   -0.797327    1.054499
O     -1.720105    0.305417    2.115871
O     -3.217466    0.310561   -0.065474
O     -1.010975   -0.022070   -2.258411
O      1.721535    1.186256   -1.478339
O      3.748058    1.001923    0.434518
H      2.518735   -0.309006    1.434399
H      3.047072   -0.824649   -0.217170
H      1.149460    1.512886    0.457292
H      0.613225   -1.238564   -0.842514
H     -1.025609    1.341354   -0.684562
H     -2.278816   -1.451317   -0.649584
H     -1.778443   -1.707970    1.622500
H     -2.599373    0.090571    2.523954
H     -3.935436   -0.282576    0.278065
H     -1.757013    0.520792   -2.624641
H      1.984338    0.425909   -2.060919
H      4.540167    0.544976    0.820234
