24

C      2.687375    0.138916   -0.200075
C      1.371645   -0.626844    0.039447
C      0.205947   -0.051087   -0.804762
C     -1.100731   -0.855645   -0.705604
C     -1.912465   -0.052910    0.271351
C     -1.394015    1.354421    0.037562
O     -0.056253    1.281027   -0.407766
O     -1.460513    2.093269    1.226612
O     -3.285585   -0.133139   -0.007499
O     -0.920612   -2.169781   -0.243688
O      1.037211   -0.600445    1.403903
O      2.606097    1.459691    0.266243
H      2.915315    0.157132   -1.287127
H      3.528156   -0.394372    0.300140
H      1.547872   -1.679228   -0.283552
H      0.523574   -0.043631   -1.871151
H     -1.612664   -0.858885   -1.698543
H     -1.700802   -0.371722    1.320160
H     -2.002734    1.855562   -0.751430
H     -1.192255    3.020227    0.994235
H     -3.583642   -1.025868    0.308198
H     -0.597247   -2.697246   -1.019928
H      1.657369   -1.224581    1.863920
H      2.738960    1.425139    1.249355
