45

C      5.077308    2.224322    1.628935
C      3.967785    1.238202    1.276179
C      3.589864    1.336560   -0.206305
C      2.473526    0.345483   -0.553175
C      2.056248    0.474106   -2.023864
C      1.033681   -0.592997   -2.451341
C     -0.350466   -0.424801   -1.788693
C     -0.565502   -1.409063   -0.625858
C     -1.916017   -1.195664    0.040417
C     -3.101599   -1.709023   -0.567876
N     -4.284186   -1.465344    0.049973
C     -4.390703   -0.775670    1.179065
N     -5.661324   -0.657874    1.599052
C     -6.318448   -1.338598    0.623519
N     -5.491792   -1.835977   -0.327873
N     -3.308400   -0.264998    1.799926
C     -2.064152   -0.457737    1.269487
C     -0.917333    0.169077    2.029034
C     -0.723771    1.629178    1.632555
N     -3.087143   -2.461519   -1.791884
H      4.744918    3.265795    1.431619
H      5.988543    2.010089    1.030754
H      5.329455    2.130244    2.706212
H      3.077764    1.458559    1.905637
H      4.315494    0.207571    1.506871
H      4.484197    1.117717   -0.830587
H      3.246113    2.370875   -0.429558
H      2.825245   -0.690881   -0.354957
H      1.600474    0.558228    0.095647
H      2.958040    0.360104   -2.664756
H      1.638647    1.488007   -2.210155
H      0.902954   -0.500069   -3.551873
H      1.447610   -1.609578   -2.270893
H     -1.130728   -0.604984   -2.558405
H     -0.493800    0.619116   -1.443060
H      0.269350   -1.337079    0.087236
H     -0.492477   -2.452264   -0.996601
H     -7.391995   -1.469434    0.607651
H     -1.157208    0.140737    3.114418
H      0.032111   -0.387126    1.934020
H      0.121937    2.061277    2.208050
H     -0.496502    1.719854    0.553171
H     -1.641610    2.213221    1.857681
H     -3.979548   -2.818413   -2.199044
H     -2.216558   -2.679228   -2.320349
