22

C     -4.004813    0.616196   -0.542114
C     -2.597058    0.196357   -0.285017
C     -2.207521   -1.034954    0.228492
C     -0.835542   -0.951061    0.301577
C     -0.483095    0.283805   -0.152649
O     -1.547117    0.966345   -0.501050
C      0.919677    0.707058   -0.207133
O      1.210291    1.855395   -0.632495
C      1.965874   -0.267930    0.256388
C      1.594536   -1.489346    0.704585
C      0.172545   -1.908517    0.756266
O     -0.153270   -3.049608    1.177329
O      3.340254    0.022990    0.251004
C      3.921343    1.247323   -0.181961
H     -4.530313    0.764439    0.424098
H     -4.018480    1.567751   -1.113639
H     -4.529294   -0.165863   -1.130071
H     -2.838103   -1.868409    0.509093
H      2.353481   -2.187142    1.037294
H      3.688548    1.424749   -1.252979
H      3.555106    2.088142    0.443857
H      5.022950    1.182279   -0.069894
