31

C     -3.353945   -2.440220    0.490112
C     -3.142817   -0.921309    0.432173
C     -1.696027   -0.582806    0.134649
C     -0.912661    0.070169    1.102538
C      0.429808    0.384123    0.840726
C      1.001831    0.039822   -0.405696
C      0.220682   -0.613406   -1.369005
C     -1.114836   -0.922527   -1.101131
C      2.344892    0.353998   -0.667311
C      3.124434    1.009980    0.305381
C      2.546972    1.345377    1.535209
C      1.211357    1.036746    1.804500
O      4.469893    1.344686    0.090571
C      5.187346    1.066871   -1.107590
C     -4.057512   -0.256929   -0.567044
O     -4.410708   -0.859694   -1.615981
O     -4.475952    1.055513   -0.366922
H     -3.118679   -2.918341   -0.484571
H     -4.409495   -2.667208    0.752391
H     -2.698800   -2.883689    1.270276
H     -3.417972   -0.528986    1.436373
H     -1.348315    0.334010    2.059535
H      0.642284   -0.885525   -2.329395
H     -1.697297   -1.427267   -1.861216
H      2.775561    0.087108   -1.623867
H      3.139165    1.849648    2.288400
H      0.790451    1.308354    2.765330
H      6.226722    1.439660   -1.002379
H      4.709867    1.583159   -1.967067
H      5.219171   -0.028356   -1.288438
H     -4.185419    1.580240    0.449449
