35

C     -1.068104    2.330357   -0.111613
N     -0.052637    1.282033   -0.262406
C     -0.211335    0.291016   -1.290959
C     -1.286125   -0.521055   -1.334333
C     -2.299698   -0.621705   -0.261733
C     -3.653710   -0.746123   -0.610155
C     -4.630475   -0.866244    0.383370
C     -4.261050   -0.881637    1.730824
C     -2.913274   -0.787023    2.086656
C     -1.933516   -0.667050    1.096490
C      0.771373    0.270973   -2.383365
O      0.394635    0.062186   -3.568541
N      2.156674    0.500848   -2.118282
C      2.772802    0.048734   -0.903271
C      3.932047   -0.738851   -0.998430
C      4.573448   -1.205625    0.149004
C      4.073723   -0.879449    1.407698
C      2.936878   -0.078063    1.522182
C      2.269322    0.395295    0.376248
C      1.126991    1.323709    0.564208
O      1.181320    2.152963    1.514445
H     -1.874292    2.224226   -0.869182
H     -1.521893    2.272830    0.900184
H     -0.600235    3.328440   -0.246580
H     -1.435310   -1.151463   -2.203758
H     -3.954528   -0.737413   -1.650801
H     -5.673948   -0.949589    0.108255
H     -5.018097   -0.976241    2.498520
H     -2.626571   -0.815382    3.129948
H     -0.892941   -0.627784    1.391081
H      2.775483    0.653242   -2.947185
H      4.332038   -1.001949   -1.969809
H      5.460236   -1.820058    0.061547
H      4.573889   -1.239303    2.297612
H      2.576878    0.175155    2.512132
