34

C     -0.673719   -1.631785    2.266676
C      0.214839   -0.991336    1.224194
C     -0.307889   -0.137265    0.227045
O      0.508505    0.434414   -0.648785
C      1.820582    0.241967   -0.662967
C      2.575835    0.874226   -1.653741
C      3.952469    0.678266   -1.726018
C      4.587937   -0.131960   -0.782216
C      3.863386   -0.745418    0.247174
C      2.443625   -0.598954    0.293732
C      1.597796   -1.259603    1.217038
O      2.055697   -2.113301    2.022074
O      4.607609   -1.451801    1.196807
O      4.683247    1.300240   -2.736046
C     -1.750477    0.159330    0.102376
C     -2.182150    1.493653    0.058333
C     -3.543718    1.794962   -0.090751
C     -4.478585    0.758857   -0.213511
C     -4.047753   -0.574503   -0.193658
C     -2.690817   -0.873307   -0.045300
O     -5.831147    1.061511   -0.359564
O     -3.973923    3.120324   -0.119331
H     -0.120588   -1.797353    3.215169
H     -1.042311   -2.609790    1.893878
H     -1.536413   -0.979574    2.515809
H      2.086100    1.509001   -2.382227
H      5.662389   -0.261421   -0.827003
H      4.284487   -1.685004    2.123474
H      5.686367    1.180279   -2.815332
H     -1.462592    2.298561    0.149895
H     -4.763135   -1.379933   -0.300787
H     -2.373630   -1.908207   -0.060220
H     -6.530101    0.333616   -0.451930
H     -3.321923    3.891307   -0.033482
