40

C      3.032449    0.820180   -1.822329
C      2.890464    0.073826   -0.518784
C      3.950908   -0.623755   -0.059467
C      3.971411   -1.494877    1.137996
O      2.909864   -1.950283    1.638256
O      5.190129   -1.872956    1.693758
C      1.603443    0.144622    0.219615
C      0.426855    0.301585   -0.405091
C     -0.910614    0.382156    0.329143
C     -1.842342    1.380756   -0.386523
C     -3.177844    1.217499   -0.367250
C     -3.812713    0.068141    0.290068
O     -5.067590   -0.039436    0.283432
C     -2.981999   -0.944276    1.016206
C     -1.565038   -1.057719    0.397307
C     -0.733465   -2.010334    1.291061
C     -1.676697   -1.708646   -1.009789
C     -1.301240    2.663113   -0.983697
O     -1.867056    3.766877   -0.331165
O     -0.718721    0.852467    1.646832
H      2.705288    0.168750   -2.659519
H      4.083622    1.134229   -1.999988
H      2.411476    1.741120   -1.813175
H      4.880868   -0.571623   -0.613816
H      6.068556   -1.541392    1.313170
H      1.621404    0.082966    1.299194
H      0.401293    0.316437   -1.488671
H     -3.819950    1.950819   -0.842311
H     -3.496325   -1.930837    0.993836
H     -2.912362   -0.629893    2.080499
H     -1.243503   -2.992804    1.393286
H      0.266881   -2.201067    0.851090
H     -0.596492   -1.591425    2.310466
H     -2.204886   -1.045802   -1.726128
H     -2.235304   -2.667876   -0.954095
H     -0.673290   -1.935012   -1.428679
H     -0.196291    2.724966   -0.889165
H     -1.555946    2.691178   -2.066797
H     -1.516307    4.571629   -0.794255
H     -0.308936    1.756695    1.597557
