47

C     -7.847679   -0.375775    0.663673
C     -6.827840    0.758266    0.568980
C     -6.538223    1.179479   -0.881220
C     -5.814992    0.100018   -1.700085
O     -4.616746   -0.328220   -1.054492
C     -3.451048    0.444069   -1.001502
O     -3.388597    1.557777   -1.591655
C     -2.286723   -0.041244   -0.193625
C     -2.319211    0.611079    1.190575
O     -1.073748    0.289566   -0.874644
C      0.195654   -0.246475   -0.600538
C      0.403473   -1.287371    0.325355
C      1.691936   -1.779392    0.554622
C      2.791050   -1.239454   -0.121555
C      2.581650   -0.217001   -1.063590
C      1.293817    0.274968   -1.294078
O      4.063226   -1.771925    0.134114
C      5.267700   -1.060112    0.062260
N      5.285054    0.301537    0.091315
C      6.444794    1.008974    0.039730
C      7.677388    0.342385   -0.054054
C      7.678159   -1.061399   -0.045794
C      6.472786   -1.763497    0.006138
C      8.972352    1.113787   -0.058793
F      9.390876    1.308796    1.244104
F      9.951370    0.419353   -0.748159
F      8.804441    2.345286   -0.668010
H     -7.425759   -1.317468    0.255420
H     -8.109277   -0.548389    1.728904
H     -8.774181   -0.113092    0.110207
H     -7.233934    1.638252    1.113205
H     -5.887907    0.457286    1.079518
H     -7.490480    1.444739   -1.389879
H     -5.912193    2.096997   -0.862357
H     -6.481627   -0.776458   -1.835648
H     -5.580690    0.491526   -2.713902
H     -2.379519   -1.144102   -0.095095
H     -3.269668    0.361654    1.709293
H     -1.478379    0.245128    1.814321
H     -2.234928    1.715393    1.099821
H     -0.417556   -1.728745    0.871212
H      1.838620   -2.580326    1.268287
H      3.403645    0.181721   -1.642270
H      1.146571    1.062887   -2.021979
H      6.402745    2.089692    0.076386
H      8.608772   -1.614083   -0.076277
H      6.474823   -2.846088    0.006470
