43

C     -5.027542   -0.748367   -2.675809
C     -4.169929    0.414821   -2.258804
O     -4.080607    1.374962   -3.008868
C     -3.410943    0.453898   -0.950791
C     -3.599383   -0.798980   -0.067364
C     -2.867017   -0.731732    1.296366
C     -3.442041    0.377868    2.222875
O     -2.403980    1.346340    2.346917
C     -1.246530    0.883244    1.759564
C     -1.426186   -0.333951    1.170800
C     -0.356592   -1.013630    0.568485
C      0.914880   -0.376317    0.522011
C      1.074941    0.906317    1.115308
C     -0.020179    1.532045    1.746912
C      2.391000    1.581285    1.082124
O      2.523231    2.722297    1.605447
C      3.553151    0.926493    0.439717
C      3.413857   -0.348951   -0.153875
C      2.086377   -1.026157   -0.129404
O      1.952081   -2.157330   -0.669619
C      4.542819   -0.953328   -0.760471
C      5.775856   -0.288521   -0.768026
C      5.907805    0.968597   -0.182232
C      4.801657    1.574020    0.419292
O      7.144858    1.609363   -0.202884
O      4.447904   -2.211531   -1.356073
O     -0.534679   -2.294498    0.043336
H     -5.469256   -0.566574   -3.678990
H     -5.856832   -0.887871   -1.952014
H     -4.415703   -1.672484   -2.728946
H     -3.737054    1.356903   -0.393657
H     -2.333073    0.574188   -1.191373
H     -3.239101   -1.687412   -0.625260
H     -4.681755   -0.952715    0.132485
H     -2.940391   -1.718172    1.804703
H     -3.664859   -0.043733    3.226643
H     -4.363562    0.852414    1.824095
H      0.074878    2.500952    2.220430
H      6.637627   -0.751886   -1.232192
H      4.921174    2.551277    0.870530
H      7.275565    2.523787    0.213857
H      5.246176   -2.656833   -1.793716
H     -1.398642   -2.810102    0.148468
