27

C     -2.558843   -1.047171    1.526578
C     -1.490318   -0.376368    0.650735
C     -0.244700   -1.292799    0.582402
C      0.951683   -0.586359   -0.007065
C      1.643153    0.377769    0.745160
C      2.745143    1.042377    0.198760
C      3.167680    0.750394   -1.105065
C      2.482975   -0.209048   -1.857695
C      1.380755   -0.875375   -1.313556
O      4.263820    1.406579   -1.660349
N     -2.037647   -0.129054   -0.700689
C     -2.829575    1.104352   -0.748383
H     -2.145547   -1.282850    2.530579
H     -2.912807   -1.987982    1.053002
H     -3.426627   -0.373698    1.677748
H     -1.193341    0.579293    1.141743
H     -0.486928   -2.207527   -0.002924
H      0.031252   -1.632124    1.605331
H      1.327771    0.613955    1.753993
H      3.269101    1.783576    0.788697
H      2.804758   -0.437741   -2.865760
H      0.860158   -1.612489   -1.912221
H      4.780633    2.106591   -1.140953
H     -1.254835    0.005862   -1.380678
H     -3.183670    1.272467   -1.787569
H     -2.218416    1.982304   -0.443345
H     -3.725628    1.025068   -0.099829
