21

C     -2.307244   -1.627228    0.375642
C     -1.118485   -2.018646   -0.234386
C     -0.130105   -1.074329   -0.511853
C     -0.318657    0.283380   -0.177981
C     -1.528197    0.681603    0.447869
C     -2.512810   -0.289450    0.713332
N     -1.774995    2.055488    0.817526
O     -0.869454    2.913086    0.768678
O     -3.016135    2.439622    1.271878
O      0.661933    1.250975   -0.463176
C      1.949751    0.994599   -1.024012
C      2.830437    0.303029   -0.032278
O      2.997076    0.797142    1.114730
O      3.481857   -0.874829   -0.383943
H     -3.072484   -2.362572    0.588696
H     -0.962550   -3.057448   -0.495806
H      0.775904   -1.413983   -0.992102
H     -3.444532   -0.015215    1.190707
H      2.417931    1.964867   -1.290528
H      1.855903    0.401606   -1.958677
H      4.084857   -1.351697    0.275686
