49

C     -0.041220   -1.459102    0.393302
C      0.418671   -0.205023    1.156117
C      1.341681   -0.533773    2.343226
C      2.665659   -1.233347    1.973536
C      3.531424   -0.495097    0.936651
C      3.988257    0.891783    1.420346
C      4.910647    1.593939    0.410787
C      6.325098    0.999681    0.388937
C      7.214741    1.801314   -0.512224
O      7.962559    2.690930   -0.027754
O      7.196220    1.597291   -1.889010
C     -1.026346   -1.130837   -0.740377
C     -2.435357   -0.801391   -0.223871
C     -3.412288   -0.594981   -1.387976
C     -4.819065   -0.264211   -0.875129
C     -5.796543   -0.060545   -2.042142
C     -7.205081    0.311292   -1.558937
C     -7.867848   -0.820283   -0.829081
O     -8.133923   -1.860317   -1.409904
H     -0.501266   -2.187894    1.096040
H      0.844569   -1.946101   -0.066799
H     -0.467487    0.320587    1.568259
H      0.920058    0.502552    0.462811
H      1.563532    0.404697    2.894143
H      0.789037   -1.187147    3.053108
H      3.260304   -1.366533    2.903540
H      2.448074   -2.254891    1.595638
H      4.422029   -1.128775    0.745388
H      2.986315   -0.404906   -0.026293
H      4.500177    0.804579    2.403788
H      3.095696    1.537782    1.559620
H      4.980435    2.666463    0.698388
H      4.462283    1.547520   -0.606256
H      6.300581   -0.046395    0.020201
H      6.749741    0.994427    1.416471
H      6.591640    0.899717   -2.306802
H     -1.090865   -2.019656   -1.406203
H     -0.635890   -0.284560   -1.347436
H     -2.406151    0.125556    0.386946
H     -2.798946   -1.636058    0.415173
H     -3.454203   -1.521320   -2.002662
H     -3.048736    0.238460   -2.028830
H     -4.778710    0.663830   -0.262983
H     -5.176871   -1.096940   -0.230819
H     -5.421960    0.763594   -2.688241
H     -5.844101   -0.982189   -2.663406
H     -7.830523    0.584238   -2.435754
H     -7.151652    1.199503   -0.893074
H     -8.124396   -0.711517    0.219548
