38

C      5.187267    2.782325    0.070433
C      3.822591    2.267372    0.396525
C      3.601669    0.961383    0.555848
C      2.257389    0.454622    0.873277
C      2.031253   -0.851558    1.021774
C      0.700814   -1.368702    1.381618
O      0.590190   -1.958811    2.489707
N     -0.450984   -1.253499    0.506755
C     -0.367095   -0.673657   -0.842097
C     -1.452893    0.419615   -1.031481
N     -2.702147    0.133465   -0.269721
C     -2.885516   -1.302118    0.011532
C     -1.752706   -1.807508    0.927412
C     -1.720359   -3.342372    0.914070
C     -3.886113    0.655206   -0.975342
C     -0.909436    1.784425   -0.590304
H      5.899218    2.507276    0.877165
H      5.158713    3.888300   -0.020871
H      5.535002    2.351845   -0.892441
H      3.009404    2.976723    0.500812
H      4.423354    0.261867    0.445574
H      1.443661    1.156545    0.997526
H      2.857145   -1.551900    0.982689
H      0.640155   -0.279826   -1.080554
H     -0.544431   -1.486202   -1.580310
H     -1.658772    0.478766   -2.125883
H     -3.854760   -1.472349    0.532544
H     -2.907983   -1.877546   -0.943281
H     -1.974503   -1.459073    1.960924
H     -2.720733   -3.748217    1.176481
H     -0.993047   -3.731492    1.654687
H     -1.433909   -3.714144   -0.093025
H     -4.792043    0.534492   -0.343209
H     -4.044542    0.123946   -1.940292
H     -3.775024    1.741020   -1.176423
H     -1.622328    2.590863   -0.858909
H      0.054733    2.007880   -1.095060
H     -0.763237    1.801037    0.510145
