50

C      6.341529    1.892631    0.697665
C      4.868756    1.668394    0.644222
O      4.085283    2.564732    1.060514
O      4.371636    0.485165    0.088718
C      2.978105    0.198034   -0.005206
C      2.783324   -1.125854   -0.776870
C      1.558177   -1.914379   -0.244503
C      0.446621   -0.960941    0.233738
C      1.017189    0.095536    1.239921
O      2.436520    0.087520    1.297719
C      0.465685   -0.114313    2.659246
O      0.837825   -1.366947    3.169137
O     -0.077848   -0.289186   -0.904278
C     -1.492279   -0.232794   -0.876829
C     -1.999370    0.398803   -2.198111
C     -3.455207    0.922743   -2.070309
C     -4.164673    0.251433   -0.882648
C     -3.341036    0.492417    0.419997
O     -1.927483    0.539360    0.231926
C     -3.705606   -0.492503    1.543436
O     -3.253057   -1.788971    1.256890
O     -5.483529    0.722045   -0.743543
O     -4.171227    0.664756   -3.250185
O     -1.147599    1.431269   -2.632145
O      1.948018   -2.740261    0.824145
O      2.619490   -0.839472   -2.142639
H      6.654712    2.501796   -0.175490
H      6.874574    0.919076    0.672880
H      6.612110    2.425626    1.633540
H      2.493100    1.035412   -0.564156
H      3.696241   -1.754534   -0.643995
H      1.138649   -2.553286   -1.057960
H     -0.317386   -1.602913    0.738426
H      0.680435    1.113552    0.933996
H     -0.642711   -0.052249    2.640947
H      0.828492    0.699194    3.328660
H      1.777078   -1.282142    3.478921
H     -1.894250   -1.272728   -0.823720
H     -1.971361   -0.401419   -2.970815
H     -3.443578    2.022393   -1.879404
H     -4.222184   -0.838615   -1.094087
H     -3.624004    1.500102    0.795755
H     -4.805966   -0.481620    1.723146
H     -3.220132   -0.155852    2.483904
H     -3.998626   -2.264018    0.806066
H     -5.445018    1.706942   -0.623925
H     -3.825657    1.294789   -3.935364
H     -1.089076    2.098810   -1.898980
H      2.410505   -3.525008    0.428840
H      2.794808   -1.682526   -2.637192
