46

C     -5.131376    0.603737    0.608509
C     -4.361348   -0.366645    1.108908
C     -3.191412   -0.930124    0.337880
N     -2.055118    0.026583    0.268206
C     -1.339259    0.097634    1.567655
C     -0.142439    1.073845    1.526977
C      0.776111    0.817499    0.304027
C      2.069328    1.703948    0.355141
C      2.549357    2.200283   -0.997292
O      3.522396    2.938310   -1.022032
C      1.888409    1.858727   -2.316556
C      0.844916    0.736513   -2.235120
C     -0.067639    0.890372   -0.996631
C     -1.136435   -0.258233   -0.882434
C     -0.476952   -1.688107   -0.804959
C      0.795476   -1.733586    0.008876
C      1.371895   -0.541503    0.432965
C      2.666294   -0.469248    0.838176
C      3.431901   -1.621976    1.028672
C      2.842597   -2.863875    0.719420
C      1.538748   -2.918209    0.177357
O      4.747246   -1.556291    1.480691
O      3.079487    0.845934    0.905412
O     -0.757927    2.120061   -1.106254
H     -4.931139    1.026725   -0.371310
H     -5.973732    0.977990    1.180993
H     -4.601662   -0.783671    2.082473
H     -2.886145   -1.873124    0.841242
H     -3.546206   -1.201208   -0.681932
H     -2.472113    0.972231    0.098728
H     -2.033897    0.448311    2.363154
H     -0.986677   -0.909684    1.879877
H      0.436514    0.969576    2.471595
H     -0.527615    2.116128    1.496495
H      1.924939    2.582566    1.021399
H      2.672690    1.552956   -3.042691
H      1.411023    2.778150   -2.718747
H      1.382108   -0.234692   -2.227849
H      0.224542    0.754912   -3.157510
H     -1.738545   -0.230240   -1.820113
H     -1.178610   -2.457430   -0.431691
H     -0.218440   -2.000210   -1.839739
H      3.410989   -3.776833    0.841761
H      1.130633   -3.867941   -0.144205
H      5.186926   -0.669885    1.698744
H     -0.149838    2.859722   -0.848267
