40

C     -0.136533   -2.240967   -0.077482
C     -0.311232   -0.964381    0.798496
C     -1.576407   -1.131529    1.681771
C     -2.885437   -1.050342    0.874150
C     -3.003049    0.261686    0.077584
C     -1.781633    0.554259   -0.842442
C     -0.463977    0.388769   -0.008017
C      0.850047    0.687407   -0.753067
C      1.964711    0.892330    0.281304
C      2.255452   -0.429369    0.990594
C      0.958734   -0.874872    1.727772
C      2.998206    1.592606   -0.532925
C      4.290847    1.738288   -0.253358
C      2.236940    2.283653   -1.567331
O      2.683355    3.173887   -2.337615
O      0.915900    1.852555   -1.566563
C     -1.845122   -0.326934   -2.112333
O     -1.872150    1.890318   -1.291507
H     -1.017280   -2.482228   -0.687393
H      0.737577   -2.186988   -0.752080
H      0.022700   -3.126676    0.574621
H     -1.601692   -0.334808    2.458295
H     -1.543048   -2.104424    2.219872
H     -2.990337   -1.925096    0.202141
H     -3.738278   -1.105238    1.584915
H     -3.120746    1.088752    0.812473
H     -3.935956    0.238883   -0.527416
H     -0.549955    1.179895    0.774032
H      1.112585   -0.164092   -1.415594
H      1.646546    1.631833    1.053599
H      2.591229   -1.202781    0.267774
H      3.065086   -0.281867    1.736849
H      1.146572   -1.851190    2.225932
H      0.766350   -0.144593    2.545286
H      4.726637    1.243644    0.604434
H      4.923088    2.352206   -0.881596
H     -2.300350   -1.317229   -1.930258
H     -0.849087   -0.457313   -2.579247
H     -2.500026    0.154825   -2.870353
H     -1.870271    2.497124   -0.505315
