33

C     -3.674372    2.582473   -0.320935
C     -2.617339    1.508198   -0.263642
C     -1.271588    1.878049   -0.377589
C     -0.250922    0.919006   -0.329962
C     -0.575817   -0.445502   -0.192442
C     -1.931377   -0.825454   -0.017507
C     -2.952660    0.146612   -0.080582
C     -4.366954   -0.274890    0.061507
O     -5.221834    0.090151   -0.787983
O     -4.771536   -1.074064    1.128099
O     -2.293724   -2.153707    0.232217
C      0.522713   -1.440091   -0.315542
O      0.285928   -2.581538   -0.793806
C      1.925278   -1.024341   -0.059881
C      2.246954    0.345224   -0.187022
C      1.169912    1.335670   -0.420771
O      1.461959    2.537671   -0.671091
C      3.585495    0.761072   -0.087692
C      4.600774   -0.169222    0.151352
C      4.282037   -1.516683    0.316241
C      2.955411   -1.952919    0.240973
O      2.703148   -3.301242    0.504235
O      5.930521    0.237359    0.238767
H     -4.398849    2.454809    0.510847
H     -4.209980    2.527147   -1.291474
H     -3.233235    3.597472   -0.224468
H     -1.017943    2.924410   -0.499397
H     -4.130597   -1.333335    1.868326
H     -1.641326   -2.866625    0.528077
H      3.844453    1.807309   -0.193859
H      5.069550   -2.229139    0.529042
H      1.779529   -3.672769    0.678394
H      6.196389    1.208890    0.127569
