34

C     -3.085893    2.232298    1.336691
O     -2.359444    1.104941    0.864036
C     -2.480109    0.623311   -0.444822
O     -3.283018    1.171833   -1.249905
C     -1.669805   -0.588545   -0.876308
C     -2.335542   -1.864034   -0.264715
C     -1.469768   -3.077797   -0.467656
C     -0.147191   -2.993178   -0.329987
C      0.510732   -1.684649   -0.177900
C     -0.204244   -0.490690   -0.423231
C      0.528782    0.720022   -0.423158
O     -0.024059    1.794286   -0.784901
C      1.887659    0.716861   -0.040451
C      2.668971    1.896118    0.049493
C      4.016098    1.810830    0.431679
C      4.593454    0.574675    0.722871
C      3.833862   -0.591081    0.633092
C      2.489752   -0.529093    0.253134
O      1.794379   -1.654110    0.155988
O      2.118237    3.147310   -0.230988
O     -2.539930   -1.690526    1.115962
O     -1.654291   -0.681202   -2.283929
H     -2.825801    3.130074    0.736854
H     -4.177057    2.037249    1.268276
H     -2.819405    2.418725    2.397155
H     -3.318882   -2.039099   -0.761262
H     -1.933238   -4.043763   -0.624566
H      0.454911   -3.892160   -0.369995
H      4.618670    2.707349    0.504519
H      5.633765    0.520092    1.016750
H      4.291794   -1.546792    0.855687
H      2.666372    3.997360   -0.168185
H     -3.201228   -2.375313    1.399350
H     -2.578534   -0.861305   -2.599916
