12

C      0.247320   -0.513063    0.377533
C     -0.226487    0.489891   -0.675604
C     -1.548501    0.073057   -1.238040
O     -1.599335   -0.684775   -2.242332
O     -2.725486    0.481543   -0.623632
C      1.565135   -0.091559    0.946307
O      2.638239   -0.470854    0.407719
O      1.608766    0.760638    2.042441
H      0.348186   -1.522360   -0.079124
H     -0.498267   -0.576965    1.199956
H     -0.329479    1.497720   -0.217303
H      0.519909    0.556728   -1.497683
