16

C      2.982605   -0.076132   -0.184581
O      2.133633    0.636731    0.707132
C      0.741042    0.528379    0.673559
N     -0.004653    1.241157    1.558253
C     -1.360558    1.160933    1.555162
C     -2.007492    0.337752    0.634494
C     -1.229836   -0.390454   -0.270409
N      0.124623   -0.280563   -0.232478
N     -1.846286   -1.246852   -1.232019
H      2.758901    0.210847   -1.233942
H      4.039589    0.175346    0.039092
H      2.837895   -1.169682   -0.055097
H     -1.935884    1.736587    2.267856
H     -3.087949    0.268766    0.626105
H     -2.885225   -1.344349   -1.276577
H     -1.260405   -1.788467   -1.905557
