41

C     -3.581887    0.926375   -1.104664
C     -3.832757   -0.579508   -1.056259
C     -2.503063   -1.335275   -1.051387
N     -1.671210   -0.925655    0.100303
C     -0.435776   -1.746111    0.128790
C      0.583715   -1.262398    1.196472
C     -0.066311   -0.242025    2.127983
C     -0.478263    0.964635    1.277772
C     -1.362720    0.528997    0.055099
C     -2.671367    1.348647    0.048372
C      0.798513    1.691724    0.811285
N      1.747971    0.776920    0.155210
C      1.786521   -0.628026    0.523550
C      2.809312   -1.406322    0.133643
C      3.996844   -0.837257   -0.583201
C      3.580547    0.344924   -1.455922
C      2.851009    1.385607   -0.604095
H     -3.109716    1.198282   -2.074510
H     -4.550449    1.465945   -1.029203
H     -4.429962   -0.883600   -1.942762
H     -4.411085   -0.836162   -0.141499
H     -2.727822   -2.422954   -0.986169
H     -1.969356   -1.150936   -2.012221
H     -0.717086   -2.793435    0.376673
H      0.038373   -1.776383   -0.880390
H      0.912593   -2.128846    1.814173
H      0.644479    0.061872    2.929019
H     -0.957226   -0.685749    2.625647
H     -1.035182    1.662008    1.943568
H     -0.824888    0.750219   -0.897650
H     -3.213525    1.200735    1.008974
H     -2.435786    2.430432   -0.055105
H      0.517459    2.515300    0.118501
H      1.298271    2.155668    1.689763
H      2.798999   -2.468695    0.347092
H      4.747016   -0.504408    0.166371
H      4.460199   -1.623589   -1.216432
H      4.480358    0.804067   -1.918966
H      2.908644   -0.007949   -2.269352
H      2.456682    2.178979   -1.275473
H      3.567932    1.853946    0.105118
