48

C      5.863786    1.223864   -1.007206
C      4.397792    1.377204   -0.613748
C      4.241308    2.352331    0.524680
C      4.410145    2.050549    1.826157
C      4.690922    0.670483    2.364668
C      3.419300    0.082983    2.978168
C      2.598425   -0.573627    2.088645
C      1.715490   -0.580013    1.100410
C      1.211640   -1.855538    0.563932
C      0.397069   -1.942407   -0.494611
C     -0.087637   -0.742529   -1.268755
C     -1.019790   -1.130018   -2.428944
C     -2.383489   -1.683886   -1.975414
C     -3.311337   -0.592860   -1.418817
C     -4.691530   -1.172279   -1.072427
C     -5.697972   -0.093100   -0.642598
C     -5.353635    0.532733    0.715314
C     -6.455591    1.438814    1.167163
O     -6.516330    2.622851    0.743231
O     -7.442752    0.961690    2.020511
O      3.468896   -1.279068    3.088180
H      6.466157    0.842956   -0.156283
H      6.276207    2.203134   -1.332543
H      5.948770    0.506599   -1.850086
H      3.958564    0.389788   -0.362484
H      3.840017    1.768310   -1.491474
H      3.975391    3.374253    0.270673
H      4.257856    2.843070    2.553952
H      5.450618    0.763308    3.169541
H      5.125500   -0.004181    1.597016
H      2.909858    0.582255    3.829033
H      1.397258    0.369215    0.690668
H      1.521902   -2.776701    1.044748
H      0.090828   -2.932227   -0.813179
H     -0.600080   -0.033415   -0.587611
H      0.796388   -0.219957   -1.695212
H     -0.512977   -1.894536   -3.057538
H     -1.181217   -0.240310   -3.075969
H     -2.871478   -2.147848   -2.860338
H     -2.244720   -2.483677   -1.216792
H     -2.860674   -0.160032   -0.503261
H     -3.428540    0.213158   -2.176070
H     -4.590609   -1.934079   -0.267852
H     -5.103322   -1.683406   -1.970571
H     -6.700876   -0.569479   -0.574930
H     -5.754079    0.699886   -1.420583
H     -5.206133   -0.265601    1.474615
H     -4.415318    1.121340    0.639779
