28

C     -4.256473    0.420396    0.359664
C     -3.833753   -0.362532   -0.718164
C     -2.637494   -1.081999   -0.635465
C     -1.859635   -1.029178    0.533530
C     -2.284673   -0.229446    1.607836
C     -3.481636    0.488332    1.520859
C     -0.554019   -1.771209    0.611510
C      0.571044   -0.879526    0.179594
C      0.923536   -0.777887   -1.171690
C      1.958424    0.082697   -1.539750
O      2.249357    0.209565   -2.759379
C      2.637661    0.815995   -0.548041
C      2.208936    0.670858    0.781663
O      1.213523   -0.154220    1.090570
C      3.751762    1.742450   -0.862973
O      3.909433    2.783446   -0.169884
N      4.676260    1.464550   -1.917237
H     -5.181939    0.977686    0.293428
H     -4.431413   -0.409248   -1.619323
H     -2.316954   -1.677568   -1.481285
H     -1.688358   -0.160786    2.509338
H     -3.806700    1.100161    2.352402
H     -0.586788   -2.683936   -0.023381
H     -0.374245   -2.113910    1.653737
H      0.390871   -1.346605   -1.925014
H      2.690481    1.226336    1.576346
H      4.695776    0.535749   -2.392527
H      5.417016    2.159830   -2.158402
