44

C     -0.010253   -0.701504   -0.901349
C     -1.436407   -0.994487   -0.412199
N     -2.330854    0.129968   -0.726433
C     -3.637159    0.002966   -0.055777
C     -4.399709    1.337206   -0.184515
C     -5.646505    1.411664    0.705636
O     -6.652021    0.571235    0.211267
C     -4.434770   -1.140304   -0.635947
O     -4.740388   -2.125165    0.089102
O     -4.823314   -1.117182   -1.972895
C      0.645674    0.494042   -0.160707
C      0.882357    0.225326    1.305547
O      0.824607    1.175710    2.130753
O      1.208562   -1.053370    1.750443
N      1.886194    0.949933   -0.820073
C      2.998708   -0.018148   -0.801800
C      4.163071    0.563558    0.004498
C      5.357850   -0.408747    0.069877
C      6.532618    0.222053    0.773386
O      6.398441    0.678954    1.939612
O      7.781561    0.283392    0.159703
O      5.005110   -1.612962    0.705245
H     -0.047503   -0.485389   -1.991337
H      0.594189   -1.623538   -0.773361
H     -1.414145   -1.186701    0.683019
H     -1.799407   -1.918964   -0.914307
H     -2.471025    0.171315   -1.764343
H     -3.470535   -0.179866    1.030781
H     -3.717030    2.159469    0.123016
H     -4.682732    1.524008   -1.243724
H     -6.017084    2.461161    0.710833
H     -5.387215    1.127690    1.750425
H     -7.417380    0.660549    0.836590
H     -5.356568   -1.880454   -2.372025
H     -0.070292    1.343940   -0.216977
H      1.387292   -1.232779    2.730984
H      1.667698    1.207797   -1.811609
H      3.342566   -0.216325   -1.842184
H      2.706568   -0.994588   -0.364954
H      3.813280    0.801623    1.033108
H      4.489625    1.513375   -0.474262
H      5.660522   -0.650552   -0.971769
H      7.932779   -0.085236   -0.771550
H      4.683023   -1.390671    1.618417
