48

C     -4.545904    2.551874   -1.632248
O     -4.536024    1.417601   -0.771324
C     -3.375555    0.764876   -0.324637
C     -2.090461    1.186217   -0.712217
C     -0.942275    0.524704   -0.248671
C     -1.095998   -0.581063    0.608303
C     -2.373825   -1.015680    1.002021
C     -3.508232   -0.339593    0.534740
O     -4.769480   -0.782264    0.936991
O     -2.557092   -2.114819    1.856427
C     -1.500187   -2.892981    2.409288
C      0.432765    1.030593   -0.676028
C      1.020207    2.097229    0.268770
C      1.527981    1.455932    1.554771
C      2.791085    0.655051    1.251622
C      2.529872   -0.304830    0.098252
C      3.419913   -1.383750   -0.088696
C      3.205152   -2.237486   -1.163877
C      2.182281   -2.058732   -2.034255
C      1.280829   -1.008871   -1.910794
C      1.446202   -0.105090   -0.837741
O      2.214852   -3.052199   -2.993811
C      3.329606   -3.908012   -2.708128
O      3.934506   -3.351359   -1.532962
C      1.618422    2.629213    2.538406
O      0.565805    3.492253    2.115863
C      0.180599    3.183578    0.821143
O     -0.676973    3.842186    0.177100
H     -4.077322    2.296387   -2.606072
H     -5.595960    2.859574   -1.813859
H     -4.005174    3.397239   -1.156464
H     -1.974728    2.031075   -1.377226
H     -0.220768   -1.105566    0.963113
H     -5.624355   -0.333213    0.631329
H     -0.843593   -2.254181    3.037200
H     -0.909699   -3.367246    1.596999
H     -1.932853   -3.691407    3.046133
H      0.328394    1.513084   -1.674225
H      1.866909    2.595851   -0.258908
H      0.766578    0.761880    1.971796
H      3.088183    0.089335    2.161319
H      3.622889    1.338246    0.974134
H      4.252341   -1.550702    0.583231
H      0.471111   -0.897426   -2.620897
H      2.977328   -4.941044   -2.505026
H      4.049705   -3.894181   -3.552970
H      1.460339    2.302237    3.588090
H      2.592603    3.155479    2.438879
