26

C     -0.012199   -2.852740   -1.034036
C      0.407126   -1.481460   -0.567403
C      1.771749   -1.227440   -0.361316
C      2.213571    0.023836    0.090547
C      1.273111    1.035927    0.324961
C     -0.099230    0.814543    0.104270
C     -0.539590   -0.451001   -0.342171
C     -1.986087   -0.684629   -0.581843
O     -2.366815   -1.173784   -1.679089
C     -3.015112   -0.324436    0.444639
O     -1.045475    1.835842    0.299294
C     -0.742001    3.152799    0.747760
C      3.655301    0.277185    0.316164
O      4.506024   -0.628156    0.106292
O      4.091781    1.519080    0.763565
H     -0.272811   -2.816134   -2.112294
H      0.800831   -3.597057   -0.895694
H     -0.888431   -3.208028   -0.451771
H      2.492624   -2.014753   -0.547485
H      1.614675    2.002161    0.669274
H     -3.799980   -1.108973    0.481094
H     -2.552772   -0.244814    1.451338
H     -3.486372    0.644237    0.177506
H     -1.682138    3.737578    0.814401
H     -0.275428    3.115401    1.754757
H     -0.062352    3.654815    0.027240
