50

C      6.539264    0.915739   -2.329923
C      5.733444    0.506591   -1.100327
C      6.633989    0.379909    0.133639
C      5.834190    0.000331    1.348823
C      5.321360   -1.231390    1.493571
C      4.477969   -1.599614    2.681874
C      3.025229   -1.583425    2.311986
C      2.373983   -0.438049    2.093750
C      0.951555   -0.435244    1.717375
C      0.295766    0.709937    1.513244
C     -1.156302    0.724834    1.132332
C     -1.349590    0.258584   -0.318746
C     -2.807974    0.381112   -0.787111
C     -3.726511   -0.663788   -0.129083
C     -5.126147   -0.698843   -0.762850
C     -5.954932    0.554985   -0.432719
C     -7.405979    0.432892   -0.915759
C     -7.494823    0.427000   -2.414283
O     -7.667699   -0.658968   -3.029487
O     -7.357685    1.610622   -3.136185
H      5.863176    1.002519   -3.206225
H      7.027872    1.899292   -2.161438
H      7.316799    0.154791   -2.554448
H      4.947095    1.270442   -0.911751
H      5.236774   -0.465879   -1.307985
H      7.427161   -0.379884   -0.042679
H      7.129141    1.356608    0.327012
H      5.689473    0.744033    2.128389
H      5.462083   -1.972265    0.710950
H      4.756772   -2.625116    3.003745
H      4.661695   -0.918255    3.541938
H      2.504814   -2.529654    2.223922
H      2.901932    0.504320    2.189517
H      0.429836   -1.378898    1.603076
H      0.805494    1.658405    1.642130
H     -1.723632    0.076109    1.833445
H     -1.538089    1.763650    1.237885
H     -1.005589   -0.792575   -0.434026
H     -0.720151    0.891713   -0.982549
H     -3.177056    1.407518   -0.575438
H     -2.826885    0.235868   -1.889829
H     -3.271962   -1.672091   -0.250116
H     -3.820781   -0.464019    0.960249
H     -5.033623   -0.817637   -1.864925
H     -5.657141   -1.594037   -0.371208
H     -5.491952    1.454612   -0.891607
H     -5.968501    0.702750    0.669463
H     -7.869617   -0.489137   -0.500991
H     -7.987570    1.297773   -0.530150
H     -7.206676    2.496555   -2.666476
