50

C     -5.346805   -3.054187   -0.024160
C     -5.568428   -1.587005   -0.412811
C     -5.702654   -0.632728    0.811993
C     -5.276501    0.778968    0.383498
C     -3.815973    0.771717   -0.131463
C     -3.456882   -0.592186   -0.781393
O     -4.604828   -1.169479   -1.377345
O     -2.482851   -0.396900   -1.809461
C     -1.104244   -0.192548   -1.627100
C     -0.353572    0.210765   -2.735051
C      1.026641    0.435081   -2.634286
C      1.679552    0.247092   -1.394001
C      0.920892   -0.171011   -0.275518
C     -0.454562   -0.390409   -0.395904
O      1.504287   -0.362671    0.902291
C      2.802155   -0.173942    1.101934
C      3.637480    0.246036    0.057457
C      3.065307    0.449748   -1.213068
O      3.797743    0.791238   -2.182205
C      5.085315    0.457704    0.309949
C      5.836901   -0.518061    0.988278
C      7.198417   -0.317481    1.234967
C      7.824282    0.859603    0.813837
C      7.081062    1.840209    0.143996
C      5.719546    1.642344   -0.104862
O      9.181474    1.045706    1.066553
O      1.735605    0.843436   -3.764852
O     -2.935882    1.032934    0.933968
O     -5.436667    1.676111    1.452698
O     -4.905018   -1.075176    1.884227
H     -6.150114   -3.391002    0.665241
H     -4.364007   -3.194490    0.471810
H     -5.374129   -3.690491   -0.934029
H     -6.550491   -1.556641   -0.934587
H     -6.773189   -0.613926    1.127632
H     -5.949118    1.090347   -0.451553
H     -3.738907    1.575640   -0.903651
H     -3.051700   -1.299461   -0.025509
H     -0.851887    0.356373   -3.685543
H     -0.996167   -0.719173    0.478281
H      3.206691   -0.342030    2.091889
H      5.372533   -1.440230    1.315376
H      7.768031   -1.078396    1.753250
H      7.555996    2.757505   -0.180022
H      5.158256    2.420770   -0.606536
H      9.663751    1.887758    0.774580
H      1.279604    0.982227   -4.659161
H     -2.221867    1.628926    0.587114
H     -5.365687    2.589607    1.070029
H     -5.269389   -0.658220    2.708143
