42

C     -3.991097   -0.059214    1.199417
C     -2.826716   -0.734007    0.447597
C     -2.888232   -0.462809   -1.068851
C     -2.334343    0.925188   -1.442316
C     -0.866844    1.094370   -0.956709
C      0.108228    0.176423   -1.688049
O     -0.139933   -0.197994   -2.866500
C      1.395528   -0.195281   -1.054495
C      2.409425   -0.899368   -1.741674
C      3.624143   -1.176126   -1.097868
C      3.850916   -0.757826    0.216276
C      2.838283   -0.061413    0.897857
C      1.617086    0.202685    0.271763
O      0.620083    0.873152    0.984176
C     -0.758912    0.903989    0.593965
C     -1.409656   -0.448919    1.029793
O     -1.403351   -0.563089    2.431392
C     -1.362425    2.113655    1.341185
O      5.088760   -1.054451    0.806127
C      5.454502   -0.691806    2.133618
O      2.220712   -1.319447   -3.058395
O     -2.414016    1.122061   -2.831642
H     -4.937860   -0.586566    0.954500
H     -4.132913    0.996498    0.907149
H     -3.853750   -0.119552    2.298583
H     -2.995187   -1.827566    0.575804
H     -3.938977   -0.551423   -1.422594
H     -2.306031   -1.247495   -1.599419
H     -2.960050    1.705695   -0.959455
H     -0.552060    2.132933   -1.202567
H      4.402013   -1.714672   -1.624847
H      2.980976    0.268649    1.917916
H     -0.751178   -1.252969    0.622638
H     -1.539130   -1.523324    2.645221
H     -1.280455    1.975979    2.439963
H     -0.795038    3.033033    1.081456
H     -2.418121    2.304766    1.096081
H      6.484570   -1.049792    2.336467
H      5.432964    0.412656    2.247418
H      4.763506   -1.165116    2.862830
H      2.939028   -1.823683   -3.565066
H     -3.374450    1.242176   -3.054304
