33

C     -4.708069    0.242690    0.157088
C     -3.263103   -0.134182    0.010282
C     -2.320593    0.826582   -0.372311
C     -0.972892    0.480384   -0.561792
C     -0.556874   -0.860443   -0.340915
C     -1.522004   -1.829757    0.009743
C     -2.863556   -1.464131    0.171485
O     -1.141988   -3.155822    0.222232
C      0.874511   -1.263692   -0.409983
O      1.179090   -2.333105   -1.005047
C      1.958839   -0.444813    0.191885
C      3.120482   -0.174992   -0.566057
C      4.122533    0.655177   -0.046646
C      3.979471    1.225533    1.216647
C      2.848190    0.950086    1.982954
C      1.847876    0.101145    1.497013
O      0.783722   -0.201230    2.348715
O      3.266690   -0.712441   -1.845604
C     -0.052583    1.523543   -1.066845
O      0.742085    1.261893   -2.007873
O     -0.075435    2.812177   -0.538924
H     -5.211775   -0.413944    0.898188
H     -4.805402    1.292178    0.508113
H     -5.217909    0.139859   -0.823510
H     -2.647801    1.843497   -0.556418
H     -3.594153   -2.218280    0.438288
H     -1.814271   -3.867732    0.483260
H      5.009045    0.869797   -0.629810
H      4.753014    1.873594    1.608090
H      2.758666    1.378598    2.973258
H      0.111802   -0.931417    2.158641
H      4.086324   -0.524959   -2.411209
H     -0.673931    3.054209    0.241547
