46

C      6.190948    2.079006   -1.025740
C      6.151418    0.627735   -0.630633
C      7.351320   -0.037445   -0.324119
C      7.341049   -1.384490    0.042530
C      6.136741   -2.085463    0.095579
C      4.937644   -1.442064   -0.216643
C      4.927749   -0.081103   -0.574293
N      3.691423    0.564023   -0.931852
C      2.454503    0.348480   -0.236033
O      2.446405   -0.265208    0.866014
N      1.239613    0.901597   -0.764847
C     -0.073672    0.579954   -0.275238
C     -0.387543   -0.708439    0.194135
C     -1.678839   -1.002184    0.641951
C     -2.680855   -0.022127    0.603532
C     -2.371520    1.262225    0.131184
C     -1.080914    1.555361   -0.317725
C     -4.035272   -0.324884    1.101757
C     -5.190499   -0.197179    0.309591
C     -6.444347   -0.373180    0.838032
C     -6.646838   -0.719958    2.170670
C     -5.512809   -0.888396    2.982000
C     -4.218280   -0.691962    2.454338
N     -7.376403   -0.192231   -0.111977
N     -6.766234    0.077717   -1.258760
C     -5.432644    0.077392   -1.030710
N     -4.467992    0.215833   -2.074231
H      5.423300    2.649494   -0.461329
H      5.994375    2.173778   -2.114138
H      7.180173    2.534002   -0.805502
H      8.298014    0.486920   -0.367039
H      8.269758   -1.887531    0.279270
H      6.133107   -3.132949    0.368272
H      4.019286   -2.014549   -0.203548
H      3.696872    1.261700   -1.709130
H      1.322416    1.640751   -1.499041
H      0.354700   -1.495279    0.192921
H     -1.902288   -1.998669    1.003196
H     -3.131116    2.034109    0.106932
H     -0.860878    2.548820   -0.687968
H     -7.643383   -0.864636    2.567393
H     -5.633248   -1.160772    4.022440
H     -3.361869   -0.801150    3.108485
H     -8.411334   -0.267521    0.004141
H     -3.469163   -0.045843   -1.936890
H     -4.782877    0.466311   -3.037386
