31

C      3.304945    0.155465   -1.750755
C      3.776977    0.167883   -0.440839
C      2.874080    0.193156    0.629851
C      1.497302    0.212152    0.346736
N      1.044182    0.217361   -0.946703
C      1.930810    0.174552   -1.987520
C     -0.403607    0.203734   -1.227148
C     -0.981747   -1.205546   -1.025472
C     -1.854162   -1.057173    0.201250
C     -2.157435    0.438574    0.214772
O     -1.070435    1.114801   -0.375286
C     -2.381997    0.980639    1.633757
O     -3.507816    0.390728    2.225460
O     -3.027013   -1.824590    0.098260
O     -1.711993   -1.625974   -2.155870
C      3.364009    0.194933    2.025802
O      2.553060    0.216611    2.989746
O      4.728078    0.172877    2.293223
H      4.000157    0.127158   -2.579919
H      4.845664    0.151778   -0.267647
H      0.788277    0.219150    1.165354
H      1.579914    0.153001   -3.012499
H     -0.585321    0.540398   -2.273614
H     -0.180776   -1.953705   -0.832916
H     -1.261361   -1.354567    1.099809
H     -3.066118    0.645704   -0.395473
H     -1.492531    0.770278    2.265187
H     -2.508300    2.086646    1.596196
H     -4.302786    0.798188    1.792246
H     -3.365626   -1.954390    1.021661
H     -2.428432   -0.959287   -2.327650
