43

C      1.513280    2.550184    1.070842
N      0.486569    1.635600    0.540541
C     -0.778992    2.140888    0.481664
C     -1.875179    1.316876    0.247572
C     -3.161160    1.850209    0.172756
C     -4.243305    1.078237   -0.063896
C     -4.139985   -0.286226   -0.274754
C     -2.855546   -0.885820   -0.232875
C     -1.705849   -0.087096    0.115020
C     -0.387943   -0.607847    0.274046
C      0.720025    0.295040    0.281470
C      2.029446   -0.247345    0.077274
C      3.115248    0.526664   -0.415907
C      4.361591   -0.075433   -0.544828
C      4.563160   -1.381991   -0.258912
C      3.529218   -2.211511    0.149591
C      2.239498   -1.650157    0.275101
C      1.156157   -2.477447    0.559121
C     -0.138782   -1.975425    0.519563
O      5.887250   -1.705954   -0.483778
C      6.558998   -0.525547   -0.944184
O      5.546883    0.490072   -0.974426
O     -2.699131   -2.232344   -0.600564
C     -3.758010   -3.106947   -0.978043
O     -5.380418    1.863028   -0.083727
C     -4.985626    3.219488    0.156605
O     -3.561820    3.167394    0.312126
H      2.337572    1.999625    1.569685
H      1.897182    3.207055    0.262614
H      1.084166    3.204645    1.861588
H     -0.946127    3.200734    0.649275
H     -5.032672   -0.850550   -0.505036
H      3.002223    1.544550   -0.751030
H      3.712772   -3.265148    0.321988
H      1.304728   -3.533648    0.752768
H     -0.928024   -2.667149    0.764505
H      7.364945   -0.242253   -0.235152
H      6.967711   -0.689835   -1.963225
H     -4.267179   -2.721341   -1.886410
H     -3.336381   -4.107140   -1.206308
H     -4.483903   -3.210288   -0.144087
H     -5.253352    3.856555   -0.712253
H     -5.459237    3.597598    1.086764
