31

C      4.162765    2.144508    1.404846
C      2.814988    2.102313    0.761956
O      2.294106    3.169526    0.338314
N      2.140457    0.847057    0.597429
C      0.857482    0.727860   -0.102500
C      0.030322   -0.447331    0.484359
C     -1.420466   -0.489332   -0.078601
C     -2.308758   -1.535300    0.653211
C     -3.739416   -1.605852    0.082757
O     -4.412521   -0.390424    0.277745
O     -1.709202   -2.808476    0.648063
O     -1.431992   -0.712353   -1.468340
O     -0.035693   -0.296627    1.882372
C      1.124604    0.556205   -1.571328
O      1.834004   -0.402105   -1.981113
O      0.585690    1.458982   -2.482676
H      4.155043    1.534949    2.332578
H      4.919020    1.734089    0.703974
H      4.437722    3.188579    1.665876
H      2.654222   -0.026014    0.857412
H      0.272316    1.662379    0.048548
H      0.536224   -1.410620    0.230720
H     -1.873309    0.510365    0.100698
H     -2.404378   -1.222494    1.715973
H     -3.726219   -1.887522   -0.995728
H     -4.298685   -2.400264    0.621275
H     -4.237028    0.167965   -0.523933
H     -1.770789   -3.173042   -0.272693
H     -0.924883   -1.545745   -1.648139
H      0.720701   -0.807784    2.272682
H      0.753673    1.356509   -3.476316
