41

C      4.936945    0.539504    1.150107
N      4.662083   -0.144375   -0.123359
C      4.872807    0.755405   -1.268325
C      3.345181   -0.821983   -0.148924
C      2.133898    0.135232   -0.031366
C      0.751841   -0.518994   -0.053087
C      0.617267   -1.920570   -0.174609
C     -0.647272   -2.472900   -0.190342
C     -1.776527   -1.725339   -0.093650
C     -1.742981   -0.318236    0.031046
C     -0.437343    0.287639    0.050463
C     -0.342405    1.687967    0.172920
C     -1.474190    2.482057    0.273843
C     -2.748219    1.916927    0.257234
C     -3.866671    2.760620    0.362240
C     -5.153021    2.231297    0.349157
C     -5.336405    0.858321    0.231480
C     -4.236571    0.003554    0.125978
C     -2.910727    0.508223    0.135815
O     -2.858818   -2.588359   -0.141951
C     -2.388058   -3.931856   -0.274357
O     -0.965929   -3.812920   -0.301482
H      4.705794   -0.126131    2.009366
H      4.350700    1.478942    1.245596
H      6.016574    0.794055    1.208767
H      4.286751    1.694138   -1.165061
H      4.593685    0.251293   -2.218477
H      5.949037    1.021405   -1.337678
H      3.311031   -1.558079    0.684066
H      3.263831   -1.399184   -1.096077
H      2.172644    0.854313   -0.875210
H      2.220351    0.693818    0.923182
H      1.461154   -2.588549   -0.256628
H      0.609813    2.198107    0.193166
H     -1.349406    3.555135    0.366299
H     -3.744887    3.833705    0.454789
H     -6.010161    2.887334    0.430481
H     -6.339404    0.450664    0.221731
H     -4.470951   -1.038382    0.039202
H     -2.754907   -4.375554   -1.223519
H     -2.706532   -4.538247    0.599268
