26

C      3.103793    0.172189   -0.167441
C      1.716538   -0.432930    0.076841
C      1.258895   -0.244001    1.520556
C     -0.253010   -0.199538    1.444716
C     -0.558600    0.527202    0.138033
C      0.622374    0.208297   -0.809824
C      0.257076   -0.698077   -1.958012
O      1.158330   -1.117915   -2.731432
O     -1.066704   -1.046258   -2.213313
C     -2.132828   -0.571823   -1.452042
C     -1.946410    0.190943   -0.369611
C     -3.146627    0.679620    0.392014
H      3.411229   -0.001029   -1.220423
H      3.849820   -0.309058    0.500163
H      3.098259    1.265918    0.029206
H      1.777613   -1.529984   -0.112147
H      1.605163   -1.076516    2.171113
H      1.629418    0.721263    1.933635
H     -0.682731    0.333077    2.320952
H     -0.648384   -1.240266    1.415381
H     -0.533309    1.621421    0.347039
H      0.982306    1.166713   -1.248219
H     -3.137322   -0.832066   -1.762996
H     -3.785763    1.300944   -0.270492
H     -2.843068    1.297412    1.263312
H     -3.736058   -0.185539    0.762989
