48

C     -2.153745    0.983297    0.051852
C     -1.205775    0.113539   -0.787388
N     -1.289684   -1.291425   -0.366817
C     -2.597244   -1.960771   -0.322320
C     -3.749847   -0.963157   -0.510342
C     -3.516154    0.293790    0.352362
C     -4.676019    1.263038    0.218230
C     -5.478294    1.567544    1.330856
C     -6.543906    2.460539    1.192744
N     -6.803873    3.030702   -0.013445
C     -6.049621    2.753933   -1.110030
C     -4.975608    1.866526   -1.016143
C     -0.102176   -2.067354   -0.135584
O     -0.028583   -3.241826   -0.588777
C      1.015384   -1.535230    0.663262
N      0.941336   -0.430703    1.433354
O      2.102597   -0.288332    2.002610
C      2.923720   -1.247676    1.643524
C      2.270767   -2.098255    0.777929
C      4.338164   -1.377279    2.112983
O      5.232547   -1.445373    1.003164
C      5.511445   -0.416800    0.083955
C      5.091601    0.925334    0.252937
C      5.414188    1.886118   -0.712542
C      6.156635    1.532451   -1.840066
C      6.579622    0.213574   -2.010359
C      6.257656   -0.755590   -1.055843
F      6.675688   -2.033950   -1.236048
F      4.383726    1.326438    1.335569
H     -2.290648    1.950496   -0.478950
H     -1.654822    1.223174    1.017061
H     -0.170160    0.507210   -0.711026
H     -1.495433    0.183205   -1.858850
H     -2.651345   -2.737978   -1.114382
H     -2.713440   -2.458826    0.665165
H     -4.706473   -1.451043   -0.219843
H     -3.820308   -0.687984   -1.585857
H     -3.471084   -0.061435    1.407862
H     -5.280070    1.122701    2.297558
H     -7.160886    2.703261    2.046759
H     -6.282088    3.225907   -2.055385
H     -4.376212    1.659843   -1.895072
H      2.654886   -2.989799    0.299725
H      4.618132   -0.548756    2.795828
H      4.426618   -2.320244    2.691584
H      5.086172    2.909966   -0.586107
H      6.404584    2.280537   -2.582261
H      7.158033   -0.058628   -2.883438
