33

C      5.195856   -0.333580   -0.658811
C      3.781233   -0.203827   -0.176596
C      2.820969    0.437221   -0.971257
C      1.507206    0.597917   -0.509230
C      1.143579    0.100450    0.759841
C      2.115464   -0.502947    1.570158
C      3.428324   -0.651988    1.103514
O      1.765373   -0.959807    2.839715
O     -0.161186    0.228145    1.260913
C     -1.336571    0.093092    0.507040
C     -2.414975    0.932765    0.806521
C     -3.615060    0.840331    0.088592
C     -3.726100   -0.092206   -0.951282
C     -2.664552   -0.958623   -1.244036
C     -1.470091   -0.879642   -0.506363
O     -0.424982   -1.769753   -0.758212
O     -2.794007   -1.900796   -2.263518
C     -4.744316    1.783682    0.380981
O      0.573205    1.270039   -1.296542
H      5.676933   -1.235684   -0.224244
H      5.772640    0.565486   -0.357054
H      5.225490   -0.428883   -1.765212
H      3.095608    0.821734   -1.946095
H      4.171731   -1.119422    1.737868
H      2.442461   -1.402883    3.449727
H     -2.309535    1.669381    1.593952
H     -4.640880   -0.152846   -1.528426
H     -0.482775   -2.483939   -1.473966
H     -3.644114   -1.979636   -2.809420
H     -4.748041    2.070059    1.454322
H     -4.630540    2.698341   -0.237493
H     -5.721682    1.308960    0.149727
H      0.813336    1.638858   -2.209223
