41

C     -1.388549    2.547151    1.037657
C     -1.776089    1.232772    0.326338
C     -2.662574    0.366117    1.236157
C     -3.304373   -0.727783    0.381503
C     -2.270102   -1.681019   -0.235521
C     -0.890357   -1.072418   -0.481446
C      0.112865   -1.940907   -0.739254
C      1.546157   -1.504769   -0.767559
C      1.819846   -0.528468    0.388208
C      0.735672    0.584144    0.555087
C     -0.567294    0.430479   -0.310929
C     -0.323356    1.036131   -1.719826
C      3.225216    0.051733    0.292391
C      3.574297    0.853756   -0.727597
C      4.253951   -0.266292    1.346734
O     -2.784391   -2.186214   -1.442080
O     -1.911877   -0.191004    2.285137
H     -0.723675    3.162467    0.397327
H     -2.301211    3.146507    1.243976
H     -0.887379    2.357196    2.009014
H     -2.444430    1.564911   -0.502762
H     -3.479357    1.000091    1.655742
H     -4.018300   -1.310640    1.004359
H     -3.907918   -0.251406   -0.423656
H     -2.144501   -2.512803    0.500375
H     -0.090129   -3.006631   -0.807563
H      2.195198   -2.400063   -0.650596
H      1.793326   -1.070340   -1.754624
H      1.766748   -1.152636    1.309458
H      0.458401    0.576962    1.630117
H      1.176159    1.589711    0.376891
H     -0.157769    2.132161   -1.656784
H      0.555048    0.610773   -2.231753
H     -1.203418    0.857910   -2.375379
H      2.864335    1.115575   -1.504754
H      4.577339    1.264957   -0.793335
H      4.594747    0.672282    1.832955
H      3.846409   -0.935620    2.132282
H      5.126108   -0.770626    0.879346
H     -2.421935   -3.103225   -1.557325
H     -2.562840   -0.540922    2.947907
