31

C      4.508347   -0.367657    1.440707
C      4.499601    0.659210    0.306131
C      3.260648    0.464186   -0.580181
C      2.053513    1.237118   -0.203744
O      2.904185    1.651956   -1.249666
C      0.759639    0.702677   -0.735302
C     -0.084924    0.051547    0.071407
C     -1.366054   -0.517338   -0.456446
C     -2.574397   -0.245193    0.359113
O     -2.274938    0.509005   -0.793178
C     -3.750548   -1.225727    0.170928
C     -4.989095   -0.735217    0.884004
C     -5.567971    0.436348    0.597751
O     -4.024100   -1.507362   -1.182103
O      5.669708    0.551768   -0.464027
H      4.509494   -1.401484    1.033351
H      5.414232   -0.228038    2.067840
H      3.610735   -0.234588    2.081823
H      4.490128    1.673022    0.765086
H      3.149990   -0.432166   -1.228419
H      2.075599    1.947128    0.650351
H      0.516275    0.834588   -1.786873
H      0.169467   -0.104449    1.116563
H     -1.362108   -1.327966   -1.215693
H     -2.447956    0.330582    1.301928
H     -3.451826   -2.180346    0.654166
H     -5.420893   -1.354404    1.665048
H     -5.162641    1.092264   -0.166296
H     -6.454992    0.749003    1.138901
H     -4.342186   -0.672453   -1.613986
H      5.683071   -0.356013   -0.867542
