43

C      4.817028   -0.193433   -1.598846
C      6.105876   -0.038364   -1.089437
C      6.298383   -0.095970    0.295019
O      7.453754    0.041852    0.775173
O      5.265962   -0.296442    1.110332
C      4.021019   -0.448761    0.664589
C      2.977208   -0.661974    1.566945
C      1.660636   -0.827474    1.109012
C      1.381962   -0.747866   -0.277098
C      2.438364   -0.558326   -1.178350
C      3.751183   -0.401794   -0.717615
O      0.091117   -0.870458   -0.821781
C     -1.130396   -0.415303   -0.232860
C     -1.075878    1.119219   -0.003583
C     -2.450330    1.780140   -0.263984
C     -3.596628    0.847177    0.171212
C     -3.444891   -0.562652   -0.488865
O     -2.183824   -0.731422   -1.123171
C     -4.546038   -0.793180   -1.533869
O     -4.412500   -2.060784   -2.118638
O     -3.578907    0.726545    1.571107
O     -2.568982    2.073663   -1.633925
O     -0.664444    1.375425    1.315074
O      0.653117   -1.099632    2.030791
O     -0.010206    0.403993    0.000000
H      4.654710   -0.149875   -2.669143
H      6.941103    0.124236   -1.759476
H      3.191710   -0.714319    2.627279
H      2.226410   -0.515004   -2.240441
H     -1.294187   -0.955685    0.724784
H     -0.335152    1.562188   -0.712167
H     -2.511487    2.732098    0.315167
H     -4.557269    1.330513   -0.128125
H     -3.570685   -1.354458    0.286065
H     -5.551783   -0.694057   -1.064252
H     -4.465293   -0.025933   -2.333452
H     -4.745679   -2.717661   -1.452842
H     -4.459742    0.353051    1.837012
H     -3.312138    2.725685   -1.726625
H     -0.314718    2.304541    1.334100
H      0.841407   -1.165504    3.024311
H     -0.777684   -0.221772    0.000000
H      0.787890   -0.182221    0.000000
