44

H     -7.352145   -0.976428   -1.177223
C     -6.294619   -0.965991   -0.838899
H     -5.638640   -1.094850   -1.725958
H     -6.146458   -1.816829   -0.142085
C     -5.997663    0.361518   -0.142079
H     -6.628288    0.453407    0.768797
H     -6.280633    1.187344   -0.830293
C     -4.513715    0.520782    0.222757
H     -3.895005    0.360257   -0.685922
H     -4.355294    1.568141    0.560857
C     -4.075769   -0.440397    1.341939
H     -4.798749   -0.368741    2.183790
H     -4.088023   -1.488629    0.973651
C     -2.678426   -0.111099    1.891065
H     -2.517316   -0.724998    2.804370
H     -2.634368    0.958348    2.193274
C     -1.559911   -0.416068    0.883167
H     -1.675851    0.245212    0.001002
H     -1.643127   -1.473734    0.549685
C     -0.177307   -0.188190    1.513449
H     -0.097056   -0.813567    2.429789
H     -0.070551    0.874951    1.822606
C      0.975145   -0.577912    0.573170
H      0.778477   -1.576731    0.125608
H      1.893662   -0.658448    1.191992
C      1.211031    0.463458   -0.534377
H      0.272626    0.610005   -1.108164
H      1.471188    1.445249   -0.085833
C      2.292559    0.032613   -1.542257
H      2.350968    0.799091   -2.345714
H      1.973763   -0.916871   -2.025204
C      3.698887   -0.169111   -0.948804
H      3.688238   -0.986895   -0.197896
H      4.361050   -0.501239   -1.777070
C      4.276696    1.112930   -0.325209
H      3.678744    1.384523    0.570293
H      4.211336    1.954499   -1.049734
C      5.731333    0.931405    0.128014
H      5.817514    0.037789    0.784556
H      6.033421    1.816359    0.728137
C      6.665518    0.811655   -1.036944
O      7.144208   -0.310811   -1.351385
O      6.985268    1.938979   -1.787050
H      7.607284    1.873313   -2.583866
