41

C      6.050373   -1.406391    0.940940
O      5.966623   -0.043460    0.537080
C      4.777432    0.606661    0.170555
C      4.844721    1.953636   -0.209520
C      3.680078    2.639876   -0.572511
C      2.446230    1.987655   -0.564096
C      2.356780    0.633748   -0.201530
C      3.529586   -0.048729    0.177203
C      1.030247   -0.033149   -0.194389
C      0.893626   -1.410961   -0.409061
C     -0.376708   -1.987743   -0.389836
O     -0.478083   -3.211077   -0.668942
C     -1.510506   -1.186032   -0.110939
C     -2.842469   -1.684488   -0.006198
C     -3.926214   -0.772064    0.100752
C     -3.675822    0.603172    0.209780
C     -2.357948    1.078743    0.198273
C     -1.287871    0.204686    0.029643
O     -0.057502    0.706572   -0.006143
O     -4.774367    1.469827    0.335681
C     -4.679511    2.885724    0.455646
O     -5.279254   -1.164674    0.124688
C     -5.789303   -2.478733   -0.073723
O     -3.112740   -3.054191    0.040785
O      6.076589    2.605933   -0.220617
H      5.694468   -2.069447    0.124240
H      7.108443   -1.653939    1.163489
H      5.446807   -1.570622    1.858506
H      3.730345    3.681646   -0.862867
H      1.561176    2.540599   -0.854210
H      3.469010   -1.077438    0.500735
H      1.753182   -2.029188   -0.635766
H     -2.150798    2.136094    0.296060
H     -4.110471    3.154290    1.370656
H     -4.185524    3.312985   -0.442490
H     -5.700567    3.311658    0.535308
H     -5.434310   -2.888389   -1.042905
H     -5.495493   -3.137050    0.770264
H     -6.897138   -2.431834   -0.101483
H     -2.452126   -3.753450    0.347490
H      6.159007    3.579545   -0.489361
