23

C     -3.074485   -0.244149   -0.985293
C     -2.699910   -1.167923   -0.005752
C     -1.575594   -0.928240    0.790399
C     -0.819788    0.242997    0.613865
C     -1.199544    1.164115   -0.377305
C     -2.324323    0.920218   -1.171530
C      0.406026    0.488676    1.456471
C      1.613959   -0.323497    0.967342
C      2.121303    0.149736   -0.400186
N      3.311522   -0.603687   -0.781747
H     -3.944329   -0.431682   -1.601449
H     -3.279633   -2.070961    0.135330
H     -1.292545   -1.654213    1.542596
H     -0.623049    2.066742   -0.537729
H     -2.613018    1.632943   -1.933198
H      0.661823    1.571046    1.471620
H      0.184577    0.200211    2.507154
H      2.431679   -0.212361    1.712510
H      1.348790   -1.402356    0.915371
H      2.359758    1.236562   -0.363657
H      1.332411   -0.013369   -1.166166
H      3.575277   -0.312215   -1.750805
H      4.099092   -0.308595   -0.159560
