10

C     -1.694092   -0.601140   -0.018775
N     -1.613062    0.736619   -0.172603
N     -0.326735    1.029000   -0.138955
C      0.339835   -0.121120    0.032335
N     -0.481693   -1.183978    0.114404
N      1.759960   -0.211030    0.118267
H     -2.627364   -1.147695   -0.003659
H      0.073428    1.988833   -0.231190
H      2.348451    0.648372    0.047891
H      2.221272   -1.137861    0.252284
