25

C     -3.192527   -0.564283   -0.428284
C     -1.993029    0.251914   -0.021409
C     -2.189107    1.485742    0.473784
C     -0.588579   -0.318094   -0.169056
C      0.280817    0.519039   -1.161058
C      1.697609    0.842804   -0.641782
C      2.280847   -0.309517    0.138816
C      1.504385   -0.939375    1.032380
C      0.079033   -0.505858    1.210884
C      3.693003   -0.689284   -0.059995
O      4.211801   -1.640744    0.582943
H     -2.899540   -1.561214   -0.817555
H     -3.755561   -0.032167   -1.224089
H     -3.857752   -0.715624    0.448104
H     -3.191738    1.889471    0.580029
H     -1.352583    2.110093    0.771856
H     -0.667590   -1.339423   -0.605056
H     -0.214385    1.477007   -1.431198
H      0.380290   -0.052145   -2.110663
H      1.648200    1.730362    0.025951
H      2.348222    1.106638   -1.503718
H      1.876256   -1.779514    1.606388
H     -0.472358   -1.268661    1.802258
H      0.073086    0.447444    1.781827
H      4.301200   -0.144613   -0.770202
