11

C     -0.255490    0.129915   -0.831551
C      0.572620    0.687365    0.289066
O      0.509732    1.919155    0.547647
C      1.424746   -0.180113    1.118158
O      1.485643   -1.418702    0.898553
O      2.170057    0.366538    2.155476
C     -1.551440   -0.394327   -0.302537
O     -2.534208    0.378855   -0.154346
O     -1.662512   -1.727797    0.070621
H      0.295591   -0.684921   -1.348048
H     -0.454739    0.924031   -1.583781
