27

C      4.645365    0.792156    0.485346
N      3.408349    0.179658    0.972395
C      2.318567    0.405054    0.016175
C      1.005072   -0.141181    0.583350
C     -0.159239    0.100568   -0.384863
C     -1.474365   -0.448073    0.187444
C     -2.651180   -0.247260   -0.784947
C     -3.888139   -0.937002   -0.261205
O     -4.420584   -0.550506    0.813260
O     -4.447952   -2.011097   -0.948038
N     -2.906080    1.179719   -1.000846
H      4.934410    0.372356   -0.503680
H      5.464674    0.589363    1.206950
H      4.525057    1.893965    0.404292
H      3.576132   -0.852107    1.038173
H      2.199815    1.496249   -0.170603
H      2.544453   -0.101957   -0.949844
H      0.791441    0.360422    1.552907
H      1.111962   -1.232972    0.767139
H      0.058641   -0.401308   -1.353369
H     -0.260727    1.192723   -0.567749
H     -1.696493    0.055440    1.154612
H     -1.352010   -1.536353    0.385896
H     -2.376244   -0.703908   -1.761459
H     -4.045018   -2.354939   -1.811309
H     -3.219428    1.620812   -0.105090
H     -3.686479    1.280178   -1.690510
