25

C      3.311899    1.348291    0.402168
C      2.704799    0.004098    0.665320
O      3.377601   -0.845693    1.309045
C      1.337018   -0.342135    0.199274
C      0.276946    0.588738    0.296446
C     -1.013493    0.247572   -0.178766
C     -1.239912   -1.037969   -0.706471
C     -0.196494   -1.965262   -0.763303
C      1.085861   -1.625306   -0.324630
O      2.117442   -2.560079   -0.424447
O     -2.499739   -1.389021   -1.193041
C     -2.118156    1.233362   -0.150442
O     -1.954844    2.367091   -0.676203
C     -3.447703    0.895346    0.448789
O      0.514514    1.823768    0.909097
H      4.402437    1.241032    0.222137
H      3.158043    2.007514    1.281621
H      2.856051    1.813752   -0.497228
H     -0.378821   -2.951884   -1.170813
H      1.961749   -3.487385   -0.802413
H     -2.684501   -2.306435   -1.581762
H     -3.841740    1.770562    1.006973
H     -3.353233    0.042599    1.154097
H     -4.163416    0.629249   -0.356590
H     -0.212310    2.498196    1.108819
