42

C     -2.400985    2.896118   -0.581280
C     -1.881773    1.556700   -0.045896
C     -3.078817    0.665943    0.382744
C     -2.719304   -0.669361    1.072408
C     -2.053456   -1.642855    0.129583
C     -0.770206   -2.077214    0.193930
C      0.201493   -1.715276    1.309283
C      0.586815   -0.224232    1.439729
C      1.112512    0.530296    0.175485
C      0.181211    0.405772   -1.030011
C     -1.075283    0.885689   -1.136078
C      2.609521    0.180761   -0.189625
C      3.554674    0.465520    0.999387
C      3.107456    1.054212   -1.372636
O      2.740827   -1.185861   -0.507856
C     -0.306471   -3.026533   -0.884581
H     -3.068238    2.742054   -1.457102
H     -1.549412    3.540691   -0.889276
H     -2.968947    3.432084    0.209161
H     -1.266574    1.814326    0.832416
H     -3.719763    0.452800   -0.502136
H     -3.705595    1.243378    1.097509
H     -2.166756   -0.510523    2.013815
H     -3.673743   -1.141604    1.389334
H     -2.666579   -1.975368   -0.705171
H     -0.244395   -2.045611    2.272148
H      1.139086   -2.300018    1.207269
H     -0.239886    0.333205    1.892150
H      1.333979   -0.155720    2.252137
H      1.113784    1.610636    0.443968
H      0.549324   -0.106093   -1.911301
H     -1.591859    0.705644   -2.076042
H      4.617884    0.434735    0.676653
H      3.353190    1.466533    1.437863
H      3.457487   -0.309205    1.787491
H      2.534214    0.868389   -2.302718
H      4.170724    0.827795   -1.603433
H      3.023546    2.133582   -1.121403
H      2.339654   -1.347299   -1.399602
H      0.750568   -3.333069   -0.745336
H     -0.935042   -3.942144   -0.874557
H     -0.394865   -2.538879   -1.878424
