42

C      1.212522   -2.252032    0.934620
C      1.314438   -0.750056    0.567114
C      2.811806   -0.449671    0.336531
C      3.053883    1.031380    0.094687
C      2.129063    1.568031   -0.956219
C      0.921827    1.028883   -1.241831
C      0.408229   -0.301177   -0.659121
C     -1.174543   -0.166077   -0.334939
C     -1.722665   -0.713251    1.003490
C     -2.540795    0.448419    1.587203
O     -2.131196    1.626063    0.946821
C     -1.824729    1.251106   -0.371395
C     -1.051482    2.386960   -1.063063
C     -0.039740    1.848730   -2.049369
O     -2.316634    0.577170    2.966193
C     -2.601120   -1.963529    0.815943
C      0.571611   -1.340240   -1.807256
O      2.868086    1.741308    1.291655
H      1.603514   -2.413496    1.961817
H      1.813299   -2.875769    0.237923
H      0.182051   -2.640393    0.898351
H      1.020173   -0.149150    1.454491
H      3.202885   -1.027153   -0.528287
H      3.402602   -0.762225    1.226792
H      4.104860    1.155875   -0.255202
H      2.396320    2.534866   -1.374995
H     -1.705611   -0.709298   -1.151332
H     -0.943161   -0.956102    1.740764
H     -3.634845    0.319902    1.401283
H     -2.792030    1.163573   -0.925011
H     -0.525879    3.011249   -0.304640
H     -1.762542    3.056031   -1.595775
H     -0.545036    1.229061   -2.820087
H      0.457851    2.694014   -2.574325
H     -2.806548   -0.167766    3.402984
H     -2.026185   -2.775946    0.326383
H     -3.483778   -1.735810    0.179995
H     -2.956907   -2.328653    1.802749
H      1.634909   -1.480978   -2.089371
H      0.147044   -2.325060   -1.520737
H      0.033186   -1.018236   -2.723597
H      3.295270    2.629448    1.168763
