22

C      0.798155   -2.310983    0.661720
C     -0.448996   -1.773106    0.358122
C     -0.584924   -0.410759    0.019250
C      0.587488    0.405817   -0.037409
C      0.464757    1.742733   -0.469715
C     -0.777506    2.271192   -0.807925
C     -1.923194    1.489826   -0.717103
C     -1.851308    0.156255   -0.296228
N     -3.078355   -0.582595   -0.186139
C      1.849303   -0.152391    0.310425
C      1.933523   -1.509730    0.643969
N      3.055100    0.627409    0.350794
H      0.885014   -3.359755    0.916076
H     -1.287680   -2.451034    0.368418
H      1.317839    2.392916   -0.581952
H     -0.853172    3.298394   -1.141532
H     -2.879509    1.930713   -0.970133
H     -3.166162   -1.457767    0.371583
H     -3.967152   -0.182105   -0.561503
H      2.889314   -1.949608    0.900706
H      3.057203    1.667733    0.399887
H      3.980260    0.156846    0.468693
