36

C      0.468326   -2.349862   -0.977681
C     -0.280284   -1.153488   -0.430294
C      0.428230   -0.020427    0.029470
C     -0.260769    1.096870    0.520128
C     -1.663196    1.088827    0.536561
C     -2.391289   -0.013715    0.054390
C     -1.694241   -1.142459   -0.447652
O     -2.345564   -2.275746   -0.977509
C     -3.748200   -2.466551   -1.126603
O     -3.795670   -0.005575    0.066907
C     -4.607293    1.065144    0.539678
O      0.479666    2.199680    0.982562
C     -0.086562    3.395650    1.508915
C      1.873609    0.015269   -0.005525
C      3.078429    0.043643   -0.035929
C      4.518107    0.072768   -0.074446
C      5.165728    1.201904    0.211207
C      5.277383   -1.168377   -0.434123
H      1.394022   -2.541432   -0.395656
H     -0.134213   -3.279548   -0.917063
H      0.737394   -2.163422   -2.037980
H     -2.190027    1.949197    0.919083
H     -3.926023   -3.452944   -1.601346
H     -4.175540   -1.683253   -1.787297
H     -4.244398   -2.468111   -0.133571
H     -5.674816    0.787463    0.423633
H     -4.413678    1.982878   -0.054600
H     -4.405237    1.252332    1.615349
H     -0.689456    3.167230    2.413099
H      0.731459    4.088205    1.794097
H     -0.718160    3.889791    0.740803
H      6.247872    1.240203    0.186148
H      4.625004    2.103784    0.472867
H      5.946666   -1.456680    0.403717
H      4.584271   -2.012811   -0.637995
H      5.888450   -0.986435   -1.343340
