25

C      2.820865   -0.661681   -0.745603
C      1.569719   -0.853426    0.131005
C      0.345377   -0.041112   -0.375537
C     -0.925362   -0.325876    0.475863
C     -2.204117    0.353300   -0.103316
C     -2.134869    1.852734   -0.021233
O     -2.062942    2.428567    1.096984
O     -2.152497    2.613655   -1.183589
N     -3.412930   -0.096758    0.593079
O     -1.132076   -1.713201    0.593847
O      0.638938    1.334184   -0.336590
O      1.856320   -0.580911    1.481590
O      3.326611    0.639726   -0.625152
H      2.566338   -0.872045   -1.808788
H      3.598960   -1.389824   -0.424012
H      1.313500   -1.932655    0.059916
H      0.129007   -0.363815   -1.423312
H     -0.753161    0.069361    1.501504
H     -2.299164    0.072052   -1.176344
H     -3.259932   -0.050786    1.627414
H     -3.600609   -1.095164    0.344706
H     -1.283154   -2.070567   -0.320618
H      0.888733    1.610890   -1.256799
H      2.049167    0.388875    1.563606
H      4.117279    0.684477   -1.223180
