41

C     -1.696699   -1.769903    0.593208
C     -2.441750   -2.454264   -0.533899
C     -2.257047   -2.134740   -1.839687
C     -1.452403   -0.976471   -2.398239
C     -1.592818    0.338594   -1.661703
C     -2.764354    1.140231   -1.726687
C     -2.804294    2.380846   -1.037325
C     -1.714221    2.831991   -0.279345
C     -0.584694    2.031156   -0.234331
C     -0.521112    0.821700   -0.907024
O      0.628759    0.225461   -0.672728
C      1.306309    1.000235    0.147126
C      0.608303    2.145130    0.446117
C      1.140484    3.095377    1.320031
O      0.521926    4.157659    1.592995
O      2.334269    2.845226    1.877281
C      3.038104    1.733610    1.630166
C      2.546728    0.753156    0.722628
C      3.270530   -0.415440    0.481798
C      4.484288   -0.628516    1.148075
C      4.978121    0.322677    2.054840
C      4.262343    1.504789    2.279587
O      6.169778    0.084593    2.739129
O     -3.893520    0.739962   -2.434388
C     -3.324859   -3.635496   -0.215123
H     -1.868387   -2.291116    1.559727
H     -2.065247   -0.735217    0.744600
H     -0.595848   -1.809061    0.401321
H     -2.781725   -2.710161   -2.597353
H     -1.724459   -0.799932   -3.465870
H     -0.385992   -1.295049   -2.418730
H     -3.699291    2.983340   -1.091527
H     -1.767644    3.770192    0.261314
H      2.891481   -1.168066   -0.201128
H      5.034313   -1.539421    0.979003
H      4.646552    2.234464    2.988004
H      6.680054   -0.777369    2.616423
H     -3.955793   -0.160049   -2.880460
H     -4.387440   -3.387795   -0.415691
H     -3.229874   -3.935246    0.856712
H     -3.032870   -4.517076   -0.834815
