25

C      3.997778    1.625079    0.046589
C      2.559403    1.217563    0.068843
C      2.184514   -0.004023   -0.324960
C      0.765883   -0.431274   -0.295928
C      0.327911   -1.660797   -0.882622
C     -1.030979   -2.009311   -0.782934
O     -1.465053   -3.084314   -1.276861
C     -1.882589   -1.129707   -0.129305
C     -1.405521    0.040046    0.399114
O     -0.123322    0.364806    0.313835
C     -2.499587    0.837267    1.052738
N     -3.685705    0.000745    0.848486
C     -3.298543   -1.170646    0.140824
O     -4.091313   -2.091310   -0.189252
O     -2.669642    2.067316    0.404656
O      1.186390   -2.529119   -1.563495
H      4.590584    0.960090    0.709687
H      4.097244    2.670659    0.406122
H      4.393644    1.562984   -0.989167
H      1.826455    1.939754    0.408158
H      2.954843   -0.687670   -0.649631
H     -2.306642    0.968904    2.141131
H     -4.652897    0.223988    1.172438
H     -1.932582    2.653332    0.719107
H      2.159727   -2.334363   -1.747573
