38

C     -4.779265    2.455764   -0.203712
C     -3.855230    1.280031   -0.324576
C     -3.900659    0.246515    0.619923
C     -3.012224   -0.837748    0.543240
C     -2.061166   -0.891629   -0.504195
C     -2.009493    0.164985   -1.433117
C     -2.891202    1.242649   -1.337924
N     -1.184053   -2.027661   -0.642807
C      0.169990   -1.951993   -1.194640
C      1.059155   -1.056145   -0.325770
C      2.491009   -1.007467   -0.868010
C      3.349185   -0.114649   -0.012452
C      3.427877    1.262163   -0.281630
C      4.198203    2.096276    0.534709
C      4.886051    1.564586    1.629038
C      4.801340    0.198396    1.911459
C      4.032058   -0.639300    1.097756
N     -3.062235   -1.844710    1.563148
H     -5.748996    2.147454    0.241976
H     -4.985989    2.896862   -1.202117
H     -4.312162    3.227278    0.443320
H     -4.621334    0.291285    1.427925
H     -1.299119    0.156593   -2.247281
H     -2.827210    2.045065   -2.062715
H     -1.520189   -2.968767   -0.340085
H      0.138459   -1.580778   -2.240230
H      0.604740   -2.975390   -1.221889
H      0.641790   -0.025948   -0.304664
H      1.068909   -1.452461    0.713630
H      2.919949   -2.033581   -0.889416
H      2.483072   -0.629768   -1.914313
H      2.891806    1.688164   -1.120768
H      4.258974    3.155574    0.321013
H      5.480736    2.211771    2.260665
H      5.328940   -0.211047    2.763202
H      3.966862   -1.694435    1.333081
H     -2.310667   -2.558347    1.677800
H     -3.817914   -1.829587    2.284084
