24

C      3.523874    0.604542    0.584262
C      2.063150    0.201327    0.760694
C      1.415808   -0.144538   -0.583696
N      0.008155   -0.526109   -0.387579
C     -0.979337    0.414626   -0.409701
C     -2.279008    0.104379   -0.201496
C     -2.657851   -1.202264    0.053817
O     -3.864399   -1.507079    0.250920
N     -1.678876   -2.153605    0.090020
C     -0.359249   -1.829367   -0.119433
O      0.513591   -2.738533   -0.060172
N     -3.022079    1.214724   -0.274133
C     -2.116883    2.190932   -0.530863
N     -0.837742    1.737155   -0.621627
H      4.102630   -0.229846    0.133830
H      3.964102    0.848460    1.574013
H      3.600705    1.499693   -0.069086
H      2.009542   -0.679131    1.437009
H      1.510188    1.041376    1.234222
H      1.485979    0.728404   -1.270010
H      1.976210   -0.972406   -1.071445
H     -1.938542   -3.147203    0.287031
H     -4.054996    1.312137   -0.156414
H     -2.384970    3.232328   -0.650164
