38

C     -0.851761   -0.260820   -2.817655
C     -0.386543   -1.017029   -1.557791
C      1.127202   -0.808652   -1.369038
C      1.769965   -1.347404   -0.072042
C      1.590263   -0.469437    1.210309
C      0.190712   -0.004682    1.701188
C     -0.873729    0.424075    0.664963
C     -1.240149   -0.754327   -0.283118
C     -2.759851   -0.659325   -0.515630
C     -3.331849   -0.107191    0.780273
C     -2.187413    0.626370    1.376796
O     -2.315338    1.340049    2.361257
C     -0.524677    1.769779   -0.006622
C      2.695692    0.540962    1.083769
C      2.862258    1.687230    1.745525
C      3.684736   -0.097737    0.238868
O      4.856128    0.316617    0.034618
O      3.178908   -1.269213   -0.298433
H     -0.162124   -0.465352   -3.664717
H     -0.873090    0.833337   -2.651909
H     -1.854437   -0.609988   -3.140537
H     -0.522311   -2.096786   -1.798700
H      1.618692   -1.348311   -2.210454
H      1.419962    0.244337   -1.531490
H      1.467128   -2.401969    0.106082
H      1.944067   -1.123270    2.042315
H     -0.236529   -0.853295    2.284657
H      0.309105    0.799532    2.455169
H     -1.124023   -1.688805    0.317419
H     -3.200445   -1.649328   -0.764541
H     -2.998862    0.065432   -1.321863
H     -3.644103   -0.929909    1.458870
H     -4.185167    0.576961    0.582126
H      0.475857    1.780308   -0.463557
H     -1.286184    2.042489   -0.766390
H     -0.511772    2.580532    0.753963
H      2.118675    2.061347    2.432706
H      3.761005    2.273474    1.603615
