18

C      0.119402   -0.916153    0.392297
C     -0.752500    0.012617   -0.462577
C     -2.188670   -0.087251   -0.046012
O     -2.964474   -0.872767   -0.653044
N     -2.673051    0.670082    1.062735
C      1.591774   -0.889034   -0.038141
C      2.235205    0.428892    0.266430
O      2.606811    0.693532    1.441089
O      2.393359    1.373589   -0.742707
H      0.038133   -0.632464    1.465255
H     -0.254044   -1.958752    0.288114
H     -0.658859   -0.264437   -1.535514
H     -0.416159    1.065433   -0.349058
H     -3.670496    0.589484    1.360708
H     -2.036407    1.307686    1.590428
H      1.675087   -1.106106   -1.125154
H      2.140727   -1.688866    0.504373
H      2.814162    2.274514   -0.549420
