37

C      3.125792   -1.435487    0.496348
C      3.000081   -0.123866    1.276405
C      2.710617   -0.393106    2.755479
C      1.918582    0.733001    0.683910
O      2.204704    1.872871    0.225453
O      0.602839    0.254745    0.640047
C     -0.497805    1.007121    0.125684
C     -0.935804    2.034433    1.189561
C     -1.887710    3.047357    0.628279
O     -3.102517    3.029083    0.959000
O     -1.434557    4.002750   -0.272669
C     -1.660392    0.031292   -0.217128
N     -1.518118   -0.724218   -1.502343
C     -0.237820   -1.467874   -1.567462
C     -1.626212    0.183375   -2.671483
C     -2.628409   -1.705970   -1.578910
H      3.967688   -2.038516    0.898377
H      2.191626   -2.032411    0.572971
H      3.330136   -1.224662   -0.575377
H      3.971629    0.414535    1.206140
H      3.533996   -0.989811    3.202858
H      1.757310   -0.951878    2.876508
H      2.636490    0.566837    3.310266
H     -0.174003    1.558631   -0.780012
H     -1.397357    1.511176    2.055915
H     -0.047458    2.580844    1.571097
H     -1.756306   -0.680504    0.635646
H     -2.618450    0.598246   -0.237237
H      0.628911   -0.778826   -1.662786
H     -0.208601   -2.138309   -2.455733
H     -0.096113   -2.095321   -0.659548
H     -1.680570   -0.394057   -3.621853
H     -2.538795    0.816782   -2.605282
H     -0.744391    0.850569   -2.763077
H     -2.589625   -2.291593   -2.525272
H     -2.581885   -2.431144   -0.735279
H     -3.617503   -1.196092   -1.538563
