17

C     -0.205759    1.268234   -0.118583
C     -0.727019    0.048822    0.080651
C      0.161143   -1.122461    0.282237
O     -0.334644   -2.265085    0.471871
C      1.656167   -0.982120    0.269764
C      2.218996    0.376635    0.073935
C      1.247274    1.504287   -0.103741
O      1.684740    2.677071   -0.238381
O      2.101149   -0.199845    1.354718
C     -2.223384   -0.137842    0.031611
O     -2.635226   -0.379220   -1.285767
H     -0.860516    2.115603   -0.287362
H      2.312837   -1.860620    0.097805
H      3.279141    0.475175   -0.240459
H     -2.541033   -0.971660    0.697531
H     -2.738257    0.773897    0.404308
H     -2.395609   -1.320869   -1.490136
