22

C     -4.071551   -0.484754    0.403519
O     -2.805723   -1.118160    0.240517
C     -1.572749   -0.446929    0.170358
C     -1.479559    0.894250    0.253825
C     -0.176352    1.579525    0.178002
O     -0.133786    2.836521    0.260450
C      1.064270    0.791558    0.006744
C      2.320567    1.417700   -0.068718
C      3.478746    0.653144   -0.230585
C      3.393976   -0.737769   -0.318263
C      2.150615   -1.371024   -0.244511
C      0.978037   -0.612509   -0.081702
C     -0.351211   -1.262988   -0.001033
O     -0.452151   -2.517413   -0.077803
H     -4.268430    0.200575   -0.447824
H     -4.097709    0.076101    1.361631
H     -4.864398   -1.260172    0.424981
H     -2.363632    1.504627    0.379226
H      2.407162    2.495012   -0.002781
H      4.443806    1.139874   -0.288157
H      4.293533   -1.326535   -0.443633
H      2.106541   -2.450632   -0.314614
