22

C     -2.672569   -1.103713    0.969302
C     -1.390197   -0.514016    0.461948
N     -0.212670   -1.109999    0.795760
C      0.978938   -0.621103    0.365839
C      2.178276   -1.248671    0.720276
C      3.395978   -0.729031    0.266853
C      3.416421    0.415485   -0.539263
C      2.219267    1.046271   -0.896121
C      0.999499    0.530045   -0.444950
N     -0.172701    1.127737   -0.780349
C     -1.369566    0.641036   -0.351592
C     -2.628784    1.347710   -0.757316
H     -3.208792   -0.361407    1.596690
H     -3.315938   -1.402702    0.115575
H     -2.469495   -2.003935    1.587514
H      2.169667   -2.134280    1.343515
H      4.324567   -1.213273    0.540114
H      4.360770    0.813523   -0.887418
H      2.242283    1.931217   -1.519937
H     -3.279096    0.660019   -1.337264
H     -3.171946    1.701306    0.143856
H     -2.393912    2.227781   -1.393030
