44

C     -4.350883   -2.268077    1.375854
C     -4.430102   -1.497893    0.058552
N     -3.972335   -0.099341    0.233076
C     -2.683324    0.243274    0.213138
C     -2.272888    1.607344    0.331096
C     -0.927973    1.991762    0.313245
C      0.064456    1.034495    0.177712
N      1.377924    1.361792    0.157176
C      2.333462    0.398715    0.023697
C      1.935872   -0.954464   -0.093029
C      2.896185   -1.952760   -0.233882
C      4.263183   -1.645945   -0.269153
C      4.683361   -0.294422   -0.129140
C      6.049395    0.067098   -0.101027
C      6.432671    1.402874    0.028412
C      5.471443    2.402771    0.140561
C      4.117132    2.075167    0.134769
C      3.703702    0.733127    0.007959
N      5.189346   -2.727143   -0.463264
O      0.646377   -1.286762   -0.073615
C     -0.310233   -0.377557    0.053765
C     -1.656321   -0.736589    0.073157
C     -5.058887    0.888420    0.431693
C     -5.411492    1.585532   -0.881477
H     -3.314780   -2.283858    1.770613
H     -4.686816   -3.314158    1.216155
H     -5.012255   -1.792572    2.130669
H     -3.874030   -2.012972   -0.752214
H     -5.487766   -1.524194   -0.285900
H     -2.979540    2.416162    0.426200
H     -0.665151    3.038802    0.402965
H      2.572274   -2.981970   -0.333114
H      6.840862   -0.662565   -0.159251
H      7.483316    1.663260    0.046791
H      5.777110    3.436322    0.241011
H      3.396318    2.877245    0.234442
H      4.854129   -3.716135   -0.435187
H      6.181068   -2.586391   -0.747146
H     -1.865502   -1.791589   -0.009181
H     -4.808848    1.617972    1.229845
H     -5.979271    0.388575    0.807256
H     -4.532067    2.110173   -1.306846
H     -5.771674    0.838286   -1.619829
H     -6.217449    2.328189   -0.703905
