36

C      3.305995    2.370790   -1.759139
O      2.519375    1.299183   -2.269122
C      1.887463    0.331725   -1.473788
C      1.117882   -0.646487   -2.106531
C      0.439517   -1.619211   -1.361159
C      0.530806   -1.623737    0.045692
C      1.344195   -0.663736    0.684463
C      2.003430    0.313666   -0.073723
O      1.516114   -0.687813    2.067749
C     -0.259965   -2.609290    0.824251
O     -0.233899   -3.822359    0.481675
C     -1.166834   -2.196244    1.959133
C     -2.407895   -1.431346    1.470211
C     -2.064911   -0.069091    0.917877
C     -2.183018    0.192426   -0.458293
C     -1.800818    1.433891   -0.975448
C     -1.308601    2.426101   -0.123860
C     -1.205463    2.181511    1.247938
C     -1.585330    0.941067    1.769502
O     -0.350678   -2.564147   -2.016676
H      2.691589    3.010501   -1.090709
H      4.183186    1.971834   -1.207395
H      3.670055    2.988016   -2.605803
H      1.031409   -0.638556   -3.185891
H      2.608722    1.050079    0.436936
H      2.094164   -0.006473    2.545581
H     -0.621838   -1.598377    2.714849
H     -1.514552   -3.110452    2.488032
H     -2.943941   -2.043795    0.711914
H     -3.104445   -1.298748    2.326254
H     -2.547068   -0.571468   -1.133919
H     -1.878566    1.623515   -2.038088
H     -1.007273    3.384245   -0.526790
H     -0.825141    2.951220    1.906847
H     -1.490232    0.761618    2.833103
H     -0.443434   -2.572513   -3.025675
