40

C      5.718204    0.035265   -0.424728
C      5.312956   -0.837734    0.588054
C      3.952540   -1.010875    0.861352
C      2.985546   -0.300990    0.132193
C      3.401936    0.560819   -0.900174
C      4.763294    0.731043   -1.170463
N      1.590988   -0.512055    0.414527
C      0.561474    0.460853    0.164203
C     -0.728467    0.037905   -0.269196
C     -1.747427    0.994278   -0.484074
C     -1.466434    2.331764   -0.227518
C     -0.230424    2.736433    0.216664
C      0.802137    1.829112    0.426975
C     -0.276871    4.184233    0.388282
O      0.673027    4.909286    0.784341
N     -1.567362    4.681445    0.038799
C     -2.302877    3.521023   -0.344824
O     -3.502663    3.542356   -0.725516
N     -0.968044   -1.348582   -0.568139
C     -2.205112   -2.030033   -0.295491
C     -2.559032   -3.151321   -1.062397
C     -3.746124   -3.842143   -0.799757
C     -4.582574   -3.427177    0.239586
C     -4.229610   -2.325027    1.022378
C     -3.043483   -1.631424    0.762867
H      6.771439    0.167142   -0.636300
H      6.052938   -1.382103    1.160403
H      3.650950   -1.691752    1.647417
H      2.677300    1.088365   -1.506509
H      5.077697    1.397409   -1.963320
H      1.310702   -1.419864    0.850591
H     -2.722749    0.704687   -0.853504
H      1.759800    2.171451    0.797486
H     -1.898735    5.671220    0.059177
H     -0.203254   -1.887905   -1.034029
H     -1.918170   -3.483816   -1.869360
H     -4.016452   -4.700569   -1.401023
H     -5.500316   -3.963743    0.442825
H     -4.871890   -2.012064    1.835426
H     -2.774859   -0.796914    1.397279
