17

C     -2.563580    1.014302   -0.009034
C     -1.643209    0.055687    0.027850
C     -1.868735   -1.392496    0.114041
N     -0.749580   -2.054372    0.130360
C      0.293767   -1.084999    0.055819
C      1.665485   -1.332502    0.043969
C      2.537218   -0.230983   -0.034797
C      2.024637    1.083113   -0.099493
C      0.636365    1.306522   -0.085931
C     -0.200364    0.193481   -0.007182
H     -2.274355    2.054941   -0.073320
H     -3.615697    0.762797    0.024996
H     -2.836886   -1.873526    0.159548
H      2.049235   -2.343089    0.093943
H      3.607309   -0.392152   -0.045841
H      2.703911    1.923427   -0.159850
H      0.234482    2.309848   -0.135075
