47

C     -3.830979   -2.685819   -0.998384
C     -2.994682   -2.538797    0.278322
C     -1.645134   -1.841338    0.010372
C     -0.679915   -2.055280    1.185882
N      0.643326   -1.538129    0.826510
C      0.735218   -0.328881    0.174077
C     -0.502777    0.498613   -0.092964
C     -1.821309   -0.318893   -0.290925
C     -2.981559    0.328831    0.475035
C     -3.818997   -0.413819    1.219586
O     -3.726894   -1.806630    1.254826
C     -3.253492    1.781087    0.323625
O     -2.685382    2.436024   -0.593157
O     -4.150850    2.422541    1.185460
C     -4.453088    3.808948    1.086021
C      2.013351    0.164675   -0.123443
C      3.134533   -0.562895    0.203846
C      3.051751   -1.786508    0.850322
C      1.768599   -2.258778    1.164010
C      4.215352    0.186005   -0.200060
C      5.588017   -0.040253   -0.118541
C      6.444215    0.954084   -0.625943
C      5.915318    2.136328   -1.191739
C      4.523838    2.338273   -1.256353
C      3.694817    1.338394   -0.749754
N      2.344749    1.341616   -0.707202
H     -4.776928   -3.218370   -0.764251
H     -3.274855   -3.277092   -1.756524
H     -4.084974   -1.694019   -1.427375
H     -2.816978   -3.564344    0.669678
H     -1.177677   -2.323207   -0.879284
H     -1.048290   -1.527913    2.093161
H     -0.623148   -3.142191    1.419747
H     -0.598789    1.195815    0.767731
H     -0.348117    1.119306   -1.000796
H     -2.091036   -0.248532   -1.368685
H     -4.603606    0.051629    1.801988
H     -3.530303    4.410273    1.228778
H     -4.896303    4.031067    0.092205
H     -5.184569    4.079974    1.874649
H      3.937488   -2.348363    1.117011
H      1.680871   -3.205327    1.683739
H      5.984677   -0.947096    0.319073
H      7.516238    0.812982   -0.581102
H      6.585595    2.893615   -1.576982
H      4.111838    3.242589   -1.685157
H      1.710838    2.099804   -1.043433
