21

C     -2.916940   -0.369102   -0.084421
C     -1.470296   -0.084168    0.328116
C     -0.637818    0.336660   -0.897225
C      0.831093    0.650039   -0.562139
C      1.632820   -0.601424   -0.181687
C      3.081983   -0.260180   -0.008791
O      3.887423   -0.437169   -0.960333
O      3.541286    0.291710    1.183498
O     -1.450065    0.939900    1.288848
H     -3.387499    0.543696   -0.508687
H     -2.948832   -1.180703   -0.842419
H     -3.504816   -0.694221    0.800064
H     -1.044826   -1.020712    0.754800
H     -0.674712   -0.462952   -1.669730
H     -1.091812    1.249014   -1.343414
H      0.884666    1.398455    0.258430
H      1.294477    1.110329   -1.462832
H      1.527240   -1.375211   -0.973337
H      1.255126   -1.026514    0.771384
H      2.911092    0.463023    1.957949
H     -1.719590    0.529530    2.151926
