29

C     -3.133192    1.329209   -0.007766
C     -2.160206    0.269709    0.526273
C     -2.385159   -1.082709   -0.182220
C     -1.078758   -1.885731   -0.228774
O     -0.062461   -1.255537   -0.996620
C     -0.035965    0.165334   -0.880084
C     -0.690907    0.734647    0.401365
C      1.378347    0.682963   -1.033990
C      2.478648    0.200658   -0.407924
C      2.443112   -1.003757    0.505170
C      3.797269    0.886234   -0.663570
H     -3.032810    2.269383    0.575403
H     -2.927571    1.547290   -1.077702
H     -4.180028    0.970752    0.092206
H     -2.380887    0.134726    1.609196
H     -2.736139   -0.932102   -1.227518
H     -3.163699   -1.664594    0.357503
H     -0.705526   -2.069963    0.802546
H     -1.290595   -2.877492   -0.680640
H     -0.610017    0.574401   -1.741156
H     -0.625407    1.845563    0.398746
H     -0.132436    0.387909    1.294478
H      1.501834    1.529604   -1.705991
H      1.726850   -0.852110    1.334855
H      2.167429   -1.911343   -0.069563
H      3.436382   -1.193459    0.962055
H      4.033193    0.854609   -1.748514
H      3.738163    1.945877   -0.336048
H      4.630535    0.399931   -0.115050
