42

C      0.626276   -0.127435   -1.783777
C      0.449055   -0.511886   -0.283951
C     -0.104733   -1.961536   -0.193062
C     -1.569991   -2.080308   -0.621862
C     -2.475343   -1.193692    0.234290
C     -2.084648    0.309218    0.202023
C     -0.535408    0.458949    0.497373
C     -0.015637    1.926562    0.497645
C      1.385410    2.021709    1.117404
C      2.311511    1.041613    0.443151
C      3.369295    1.497769   -0.255985
C      1.854188   -0.418250    0.441112
C      2.953151   -1.412665   -0.034774
O      2.651754   -2.732797    0.330445
C     -2.897500    1.001305    1.331988
C     -2.547275    0.949523   -1.134396
H      1.280351   -0.855091   -2.303954
H     -0.315514   -0.137136   -2.345448
H      1.078970    0.875137   -1.912600
H     -0.014752   -2.334305    0.851667
H      0.484795   -2.642166   -0.843602
H     -1.889528   -3.137148   -0.491781
H     -1.688389   -1.848067   -1.699093
H     -3.526687   -1.323805   -0.106268
H     -2.427534   -1.572080    1.280682
H     -0.449335    0.136253    1.561597
H      0.012135    2.340151   -0.530962
H     -0.679115    2.581817    1.095107
H      1.329422    1.776506    2.200187
H      1.752720    3.068227    1.032917
H      3.609808    2.556271   -0.272825
H      4.005184    0.843817   -0.839999
H      1.694169   -0.672957    1.513404
H      3.091455   -1.368001   -1.132402
H      3.930831   -1.137151    0.423656
H      2.801703   -2.802155    1.309473
H     -2.834069    2.107040    1.265828
H     -2.546097    0.685403    2.337755
H     -3.975746    0.738940    1.258104
H     -2.341457    0.319137   -2.014656
H     -2.102096    1.952332   -1.287241
H     -3.651330    1.080954   -1.137168
