50

C      7.999786    0.734633    0.700833
C      6.593506    1.104514    1.172916
C      5.543010    0.045884    0.801082
C      5.169679    0.087226   -0.690757
C      4.199237   -1.037218   -1.098658
C      2.834234   -1.018132   -0.385907
C      2.034376    0.268353   -0.656240
C      0.625670    0.226656   -0.040768
C     -0.361354   -0.601522   -0.882366
C     -1.755542   -0.684649   -0.240674
C     -2.540292    0.630672   -0.352644
C     -3.940026    0.460331    0.195738
C     -4.193222    0.635189    1.508571
C     -5.564131    0.435300    2.030421
O     -5.812030    0.609799    3.252940
C     -6.648167    0.027555    1.121382
C     -6.405687   -0.173031   -0.185527
C     -5.037584    0.024952   -0.708424
O     -4.808563   -0.183617   -1.930376
O     -7.409306   -0.569588   -1.085731
C     -8.771983   -0.796501   -0.736984
O     -3.163925    1.000799    2.378498
H      8.060064    0.735492   -0.406688
H      8.725320    1.481868    1.085429
H      8.287978   -0.266545    1.086288
H      6.306864    2.094203    0.755079
H      6.616432    1.202731    2.280104
H      4.635333    0.254077    1.406201
H      5.910944   -0.966820    1.076862
H      4.742181    1.078634   -0.950007
H      6.087523   -0.037549   -1.302251
H      4.685497   -2.017610   -0.901927
H      4.030008   -0.975669   -2.196115
H      2.261885   -1.894370   -0.755511
H      2.968409   -1.160923    0.707238
H      1.965880    0.456754   -1.750264
H      2.571362    1.125553   -0.197550
H      0.677725   -0.174571    0.995306
H      0.257041    1.272012    0.022170
H      0.020882   -1.638358   -0.984644
H     -0.442351   -0.172504   -1.905222
H     -1.661992   -0.982609    0.826981
H     -2.326699   -1.484430   -0.762261
H     -2.016790    1.443144    0.193478
H     -2.588854    0.947512   -1.416842
H     -7.638707   -0.109068    1.534034
H     -9.223814    0.136258   -0.337576
H     -9.332053   -1.101323   -1.645011
H     -8.844337   -1.610412    0.015503
H     -3.323418    1.136919    3.369115
