47

C     -2.470714    0.179420    1.655329
C     -2.357320   -0.484660    0.243717
C     -1.526585   -1.783741    0.336957
C     -0.043446   -1.480859    0.667068
C      0.590546   -0.434508   -0.302835
C     -0.288573    0.853544   -0.435645
C     -1.716062    0.416565   -0.822414
C     -2.774591    1.473745   -1.114494
C     -4.108258    0.722207   -0.948968
C     -3.765478   -0.663472   -0.356233
O     -4.709106   -1.064746    0.603909
C      0.301744    1.795338   -1.456347
C      1.613301    1.846644   -1.702294
C      2.570007    0.896721   -1.084993
C      3.855816    0.942040   -1.472901
C      4.854031   -0.013212   -0.970086
O      6.055619    0.099658   -1.330187
C      4.470079   -1.098190   -0.011766
C      2.961230   -1.377635   -0.058127
C      2.094071   -0.081130   -0.004757
C      2.264669    0.598130    1.378901
H     -3.083095    1.104172    1.629175
H     -2.954033   -0.521904    2.368340
H     -1.490916    0.444223    2.093987
H     -1.569818   -2.335314   -0.628401
H     -1.950954   -2.452850    1.116785
H      0.041292   -1.144706    1.718708
H      0.504728   -2.442391    0.591642
H      0.583247   -0.924982   -1.305281
H     -0.327551    1.411588    0.517586
H     -1.618149   -0.168995   -1.770794
H     -2.671813    1.872851   -2.147017
H     -2.702201    2.313275   -0.389150
H     -4.615706    0.602361   -1.930915
H     -4.778634    1.291924   -0.268464
H     -3.728407   -1.414233   -1.181787
H     -5.541271   -1.279538    0.107228
H     -0.335741    2.527752   -1.934873
H      1.973269    2.582383   -2.412412
H      4.176229    1.669633   -2.210178
H      5.017424   -2.030334   -0.270743
H      4.776519   -0.804583    1.014166
H      2.717960   -2.047553    0.793725
H      2.740213   -1.934215   -0.996278
H      1.648438    1.513528    1.471051
H      3.314944    0.921250    1.534205
H      2.003042   -0.095205    2.204115
