50

C      5.034098   -0.392172    1.376753
N      3.893404    0.110644    0.569567
C      3.753054   -0.751870   -0.650709
C      2.315467   -0.779391   -1.193380
C      1.331025   -1.360884   -0.152416
C      1.839506   -1.174197    1.290101
C      2.652949    0.123388    1.416011
O      0.059586   -0.725290   -0.278096
C     -0.806126   -0.920336   -1.361039
O     -0.507683   -1.730286   -2.279287
C     -2.125277   -0.192727   -1.413254
C     -3.262098   -0.987379   -0.792531
C     -4.568791   -0.808046   -1.281557
C     -5.643795   -1.490727   -0.705081
C     -5.429305   -2.351537    0.372633
C     -4.140087   -2.528477    0.878678
C     -3.062085   -1.846322    0.308243
C     -2.019526    1.189710   -0.794134
C     -2.008396    2.330210   -1.618945
C     -1.900001    3.607952   -1.060746
C     -1.791201    3.762588    0.323141
C     -1.788009    2.639109    1.152847
C     -1.899734    1.360213    0.600764
C      4.208354    1.502003    0.155597
H      5.959621   -0.462730    0.760425
H      5.250022    0.282585    2.236405
H      4.818680   -1.403958    1.788264
H      4.439419   -0.421135   -1.464039
H      4.037299   -1.808101   -0.430671
H      2.283312   -1.394512   -2.118757
H      2.013225    0.253570   -1.471807
H      1.208562   -2.453797   -0.327568
H      2.477000   -2.037886    1.579416
H      0.980397   -1.149166    1.997109
H      1.975650    0.961669    1.127679
H      2.892443    0.294012    2.490652
H     -2.363814   -0.075340   -2.494043
H     -4.756730   -0.134713   -2.108350
H     -6.644220   -1.346860   -1.092264
H     -6.262654   -2.877587    0.818652
H     -3.975375   -3.189801    1.719742
H     -2.077216   -1.988603    0.733736
H     -2.085236    2.232520   -2.695036
H     -1.896411    4.479293   -1.703253
H     -1.706237    4.752028    0.752396
H     -1.697135    2.759823    2.224872
H     -1.887529    0.505380    1.263133
H      5.171194    1.550162   -0.402931
H      4.296796    2.173071    1.041269
H      3.413605    1.913901   -0.505519
