47

C     -0.151356   -0.976168   -2.148829
C     -0.902044    0.361670   -2.156160
C     -2.300115    0.125963   -2.663897
C     -3.347274   -0.016187   -1.851285
C     -3.241189    0.202020   -0.393438
C     -4.357822    0.113320    0.354407
C     -4.420530    0.520613    1.805221
C     -3.043069    0.695597    2.453301
C     -2.074723    1.376605    1.486546
C     -1.884292    0.482843    0.241025
C     -0.909417    1.122574   -0.791182
C      0.524389    1.413041   -0.251123
C      1.163446    0.309268    0.628618
C      2.678161    0.526831    0.838198
C      3.531944    0.093898   -0.376858
C      3.687131   -1.435014   -0.453161
C      4.348296   -1.968680    0.819195
C      3.699918   -1.406938    2.048834
O      3.795081   -2.029135    3.138723
O      3.090693   -0.147476    2.031726
O      4.481538   -1.778381   -1.558085
H     -0.279232   -1.492666   -3.124157
H     -0.532016   -1.645296   -1.349587
H      0.937274   -0.807061   -2.026287
H     -0.395992    1.013641   -2.902766
H     -2.442749   -0.023174   -3.727800
H     -4.312293   -0.239939   -2.291544
H     -5.303305   -0.117941   -0.122767
H     -5.001394   -0.236690    2.373538
H     -4.970214    1.484720    1.865262
H     -2.639613   -0.298141    2.748450
H     -3.143859    1.308845    3.374736
H     -1.118777    1.551657    2.016222
H     -2.479229    2.369831    1.189090
H     -1.468492   -0.494831    0.566605
H     -1.335130    2.125089   -1.030836
H      1.180845    1.647598   -1.114042
H      0.489466    2.345395    0.353960
H      0.972887   -0.702925    0.235094
H      0.683453    0.329377    1.627384
H      2.845988    1.613640    1.004473
H      4.541037    0.553028   -0.283978
H      3.091983    0.470083   -1.322847
H      2.689814   -1.919239   -0.556784
H      4.281567   -3.078158    0.831578
H      5.422939   -1.684795    0.831077
H      3.916272   -1.658314   -2.365854
