14

C     -1.817141   -0.952121   -0.320280
C     -0.530720   -0.887079   -0.690778
N      0.356559    0.169508   -0.292581
C      1.774558    0.069750   -0.476315
O      2.291100   -0.997767   -0.904119
N      2.614066    1.181165   -0.166061
C     -2.467088   -0.076641    0.672413
O     -3.722720    0.007781    0.687755
O     -1.733205    0.595527    1.642185
H     -2.428731   -1.727413   -0.766358
H     -0.164242   -1.649510   -1.368031
H     -0.025959    1.080976    0.040547
H      3.648019    1.113644   -0.295300
H      2.205505    2.072180    0.193168
