26

C     -2.103232    1.362552    2.341983
C     -1.672266    0.810141    1.014707
C     -2.637282    0.483788    0.050399
C     -2.250850   -0.048886   -1.188560
C     -0.889765   -0.246496   -1.460971
C      0.081644    0.043605   -0.496229
C     -0.314282    0.580135    0.742915
O      1.428286   -0.185742   -0.815644
C      2.428628   -0.546081    0.097499
O      2.132351   -0.948080    1.256762
N      3.794740   -0.520949   -0.324475
C      4.881449   -0.941013    0.551669
C     -3.277508   -0.394761   -2.227780
H     -2.855997    2.166263    2.192676
H     -1.244158    1.791231    2.901464
H     -2.557494    0.551535    2.949160
H     -3.686923    0.645535    0.268173
H     -0.583351   -0.644427   -2.421052
H      0.428356    0.847742    1.481564
H      4.017753   -0.196601   -1.291913
H      5.849737   -0.866428    0.011636
H      4.916748   -0.289725    1.450651
H      4.726473   -1.995632    0.863077
H     -4.309584   -0.313752   -1.821994
H     -3.121743   -1.438732   -2.575106
H     -3.181728    0.294778   -3.093694
