34

C     -3.384381    2.502180    0.088574
C     -3.253450    1.019008   -0.143259
C     -2.137102    0.559255   -0.749765
C     -1.838974   -0.899187   -1.007027
C     -1.158250   -1.562426    0.199090
C      0.176641   -0.924111    0.516036
C      1.235915   -1.191733   -0.271972
C      2.584624   -0.623333   -0.061082
C      3.589169   -0.927097   -0.891284
C      4.958964   -0.394347   -0.738693
O      5.837288   -0.740574   -1.572912
C      5.340871    0.540831    0.369564
C      0.282270   -0.003162    1.705524
C     -4.369902    0.096868    0.286791
H     -4.342629    2.758529    0.586311
H     -3.342734    3.039410   -0.882639
H     -2.552284    2.854728    0.734413
H     -1.374817    1.272251   -1.055099
H     -1.169817   -0.972781   -1.891209
H     -2.764461   -1.453833   -1.267672
H     -1.008347   -2.642977   -0.016709
H     -1.831784   -1.514945    1.079666
H      1.097769   -1.863375   -1.112744
H      2.759299    0.043450    0.771642
H      3.404735   -1.596838   -1.723838
H      6.414603    0.815599    0.294350
H      5.170772    0.051111    1.351227
H      4.734763    1.468699    0.305282
H      1.010424   -0.411267    2.437775
H     -0.695489    0.112353    2.218290
H      0.609089    1.005223    1.374544
H     -4.790566   -0.427094   -0.596712
H     -3.996210   -0.648156    1.017549
H     -5.195999    0.657739    0.771003
