29

C     -1.885594    2.401519   -0.179636
C     -1.360508    0.993099   -0.057815
C      0.013288    0.806572    0.163641
C      0.557124   -0.481061    0.266827
C     -0.284891   -1.588103    0.173819
C     -1.662395   -1.436006   -0.047236
C     -2.222233   -0.133554   -0.124656
C     -3.709463    0.050589   -0.345037
C     -2.513541   -2.674862   -0.166895
O      1.923613   -0.700293    0.498785
C      2.963000    0.134011    0.067359
O      2.768357    0.995730   -0.833589
N      4.270230   -0.040864    0.621034
C      5.400748    0.779116    0.204220
H     -1.062499    3.135790   -0.312337
H     -2.447980    2.671532    0.738570
H     -2.551004    2.488342   -1.064259
H      0.653960    1.670300    0.281927
H      0.146628   -2.578071    0.262078
H     -4.080490    0.984580    0.123269
H     -4.297917   -0.767547    0.117023
H     -3.920798    0.080428   -1.434196
H     -3.171997   -2.603584   -1.058114
H     -1.892950   -3.588614   -0.285903
H     -3.133037   -2.792559    0.746701
H      4.416229   -0.775403    1.349397
H      5.584580    0.642776   -0.882299
H      5.187946    1.848516    0.414104
H      6.311593    0.477620    0.763217
