19

C      2.119076   -1.039584    0.138809
C      0.844153   -1.600183    0.259487
C     -0.296734   -0.791548    0.141898
C     -0.146414    0.593911   -0.099478
C     -1.291240    1.391022   -0.215006
C     -2.554757    0.812959   -0.091533
C     -2.665468   -0.560297    0.146992
O     -3.805152   -1.085803    0.259065
N     -1.546089   -1.330246    0.258331
C      1.136893    1.148138   -0.219219
C      2.269621    0.330577   -0.099937
O      3.548771    0.869824   -0.217027
H      2.993204   -1.671629    0.231056
H      0.747202   -2.662878    0.444285
H     -1.209237    2.455490   -0.399820
H     -3.441267    1.428838   -0.180760
H     -1.655506   -2.355278    0.436870
H      1.259486    2.208894   -0.404156
H      3.693457    1.857796   -0.389854
