19

C     -2.351839   -1.189410    0.487747
C     -1.017482   -1.545342    0.699768
C      0.010148   -0.670954    0.318473
C      1.355918   -1.004276    0.520140
C      2.359995   -0.114574    0.130818
C      2.004067    1.104528   -0.458773
N      0.694363    1.415577   -0.648709
C     -0.307662    0.570595   -0.280525
C     -1.654707    0.921425   -0.490536
C     -2.668409    0.036835   -0.103953
O     -2.007507    2.136801   -1.078256
O      3.697462   -0.447642    0.332093
H     -3.143629   -1.865838    0.782820
H     -0.789492   -2.499548    1.159606
H      1.627445   -1.948846    0.976821
H      2.768169    1.805973   -0.766609
H     -3.706100    0.301445   -0.263056
H     -1.316246    2.814159   -1.377030
H      4.445506    0.179093    0.059163
