14

C      1.353251   -1.275359   -0.617841
C      0.533788   -0.410688   -1.227397
C     -0.483962    0.421905   -0.480309
C     -1.510884   -0.456733    0.184526
O     -1.285612   -0.971256    1.312281
O     -2.700694   -0.745163   -0.472088
N      0.163857    1.319038    0.485460
H      1.320344   -1.422683    0.456660
H      2.066225   -1.848638   -1.201343
H      0.601276   -0.301745   -2.306033
H     -1.015665    1.049321   -1.230570
H      0.671897    0.779384    1.223368
H     -0.557735    1.923498    0.942059
H      0.843914    1.939119   -0.012070
