15

C     -2.033271    0.897189   -0.515116
C     -0.690591    0.330662   -0.188413
C     -0.470483   -0.836869    0.422888
C      0.963687   -1.013297    0.549345
O      1.566789   -1.988433    1.070097
C      1.549059    0.170268   -0.050675
C      2.839886    0.459827   -0.169547
O      0.509984    0.979023   -0.495697
O     -1.438532   -1.735590    0.865772
H     -2.578881    0.207030   -1.192209
H     -2.618074    1.042316    0.417305
H     -1.914367    1.877828   -1.021143
H      3.147740    1.383525   -0.641450
H      3.594427   -0.221345    0.202334
H     -2.427373   -1.552133    0.746509
