27

C     -0.000748    0.651476   -0.686011
C      1.111841    0.765095    0.368209
C      1.758361   -0.587674    0.696198
N      2.889684   -0.405203    1.603642
C      4.162476    0.087739    1.164261
O      4.354538    0.375068   -0.047148
O      5.201972    0.247050    2.074817
C     -1.267030   -0.030950   -0.140611
C     -2.404112   -0.040321   -1.179330
C     -3.562405   -0.872698   -0.683376
O     -4.191305   -0.527389    0.352287
O     -3.944314   -2.031280   -1.354664
N     -2.841314    1.325619   -1.480796
H     -0.257889    1.680565   -1.018458
H      0.376848    0.096841   -1.572941
H      1.890285    1.450877   -0.029925
H      0.708885    1.222757    1.298097
H      1.012031   -1.245263    1.189614
H      2.100980   -1.094294   -0.232323
H      2.783132   -0.701690    2.599803
H      5.076620    0.023342    3.054589
H     -1.606181    0.492339    0.780802
H     -1.026924   -1.082355    0.127029
H     -2.013774   -0.496531   -2.115976
H     -3.460345   -2.344064   -2.187583
H     -3.265217    1.756122   -0.626330
H     -3.586097    1.284822   -2.214546
