32

C     -3.838383    1.345280    1.146077
C     -2.433813    1.338770    1.091649
C     -1.811253    0.700044    0.016783
C     -2.555793    0.106132   -0.976142
C     -3.950966    0.097926   -0.952606
C     -4.595297    0.726473    0.130120
O     -4.677180   -0.512943   -1.972129
C     -1.618468   -0.423786   -1.934594
O     -1.908096   -1.043462   -2.991111
O     -0.321681   -0.151444   -1.519542
C     -0.338642    0.569406   -0.279097
C      0.416729   -0.193762    0.833353
C      1.888205   -0.341599    0.497366
C      2.336609   -1.315308   -0.415963
C      3.694158   -1.415524   -0.734888
C      4.620019   -0.542137   -0.157724
C      4.182222    0.438858    0.740605
C      2.825636    0.542425    1.061859
O      5.969320   -0.654747   -0.485147
O     -0.166434   -1.441938    1.128817
H     -4.341819    1.830779    1.971939
H     -1.849539    1.818192    1.866091
H     -5.676232    0.741053    0.185032
H     -5.690288   -0.523682   -1.964355
H      0.103084    1.578770   -0.428471
H      0.330756    0.417356    1.758608
H      1.641818   -1.995711   -0.889382
H      4.026546   -2.170898   -1.435649
H      4.891364    1.123884    1.187672
H      2.507485    1.314816    1.751094
H      6.664755   -0.036061   -0.084532
H     -0.324825   -1.927162    0.279101
