50

C     -9.621026   -0.922939   -0.137749
C     -9.139547    0.510439    0.089427
C     -7.703229    0.576573    0.630866
C     -6.657704    0.162892   -0.416052
C     -5.234741    0.366207    0.118693
C     -4.189436   -0.071937   -0.918567
C     -2.750646    0.238166   -0.476492
C     -2.281000   -0.661078    0.673742
C     -0.865524   -0.413279    0.967699
C      0.298512   -0.208908    1.206762
C      1.711812    0.040116    1.494772
C      2.491193   -0.068227    0.260362
C      3.133738   -0.157762   -0.756385
C      3.912386   -0.266903   -1.991191
C      5.337985   -0.341497   -1.668098
C      6.512051   -0.402415   -1.400337
C      7.939518   -0.475568   -1.071744
C      8.165665   -0.121565    0.403213
C      9.640481   -0.242867    0.807908
C     10.485124    0.811600    0.153777
O     11.203408    0.516511   -0.837786
O     10.461721    2.124589    0.615826
H    -10.697671   -0.911245   -0.409148
H     -9.061342   -1.398862   -0.969769
H     -9.496747   -1.526699    0.786633
H     -9.217976    1.085269   -0.859376
H     -9.815560    0.991112    0.830097
H     -7.611624   -0.067619    1.533190
H     -7.503557    1.625260    0.943726
H     -6.794653    0.772699   -1.336394
H     -6.793425   -0.908953   -0.676166
H     -5.112745   -0.230519    1.047906
H     -5.084804    1.440947    0.363573
H     -4.379118    0.471204   -1.870639
H     -4.293493   -1.160051   -1.125392
H     -2.082327    0.080114   -1.352407
H     -2.669772    1.307684   -0.179997
H     -2.867157   -0.454211    1.592755
H     -2.404215   -1.730291    0.398626
H      2.076730   -0.707535    2.228962
H      1.828664    1.059445    1.917219
H      3.609401   -1.182821   -2.539312
H      3.723579    0.622777   -2.626824
H      8.488000    0.233776   -1.726910
H      8.299362   -1.506656   -1.276042
H      7.805100    0.911831    0.605807
H      7.573506   -0.817713    1.037983
H     10.023648   -1.255088    0.551109
H      9.721838   -0.127266    1.910223
H      9.885617    2.391265    1.405487
