23

C     -1.069422   -0.610995   -1.049248
C     -2.453525   -0.473313   -0.906918
C     -2.993325    0.018259    0.288821
C     -2.142129    0.373355    1.339488
C     -0.757780    0.236991    1.200537
C     -0.207973   -0.266136    0.006838
C      1.293104   -0.392445   -0.160685
C      1.915076    1.007133   -0.328748
C      3.357426    0.929203   -0.725975
O      3.672933    0.684018   -1.920070
O      4.352944    1.093598    0.228889
N      1.871651   -1.080844    0.997345
O     -4.370738    0.159309    0.441520
H     -0.671264   -0.985638   -1.984008
H     -3.105047   -0.746298   -1.727279
H     -2.553736    0.758023    2.263969
H     -0.114115    0.524046    2.022692
H      1.511188   -0.991017   -1.076016
H      1.365038    1.568799   -1.115873
H      1.825676    1.580594    0.619621
H      2.878148   -1.282671    0.798257
H      1.409752   -2.015434    1.088178
H     -5.013880   -0.088537   -0.301334
