15

C      2.217152   -0.037577   -0.624754
C      1.979421   -1.262992   -0.043593
N      0.813233   -1.223708    0.631758
C      0.374499    0.040142    0.450407
N      1.199802    0.779660   -0.314917
C     -0.930536    0.540153    0.981870
C     -2.005159    0.337705   -0.035671
O     -2.260215    1.243404   -0.873933
O     -2.694197   -0.870017   -0.084628
H      3.067055    0.236275   -1.235728
H      2.614219   -2.135997   -0.113642
H      1.074284    1.772537   -0.612986
H     -1.191041   -0.009390    1.911536
H     -0.844182    1.619122    1.233899
H     -3.414336   -1.029316   -0.779029
