19

C     -1.742641    1.218839   -0.040326
C     -0.511231    0.353951    0.085260
C     -0.625161   -1.047878    0.279390
C      0.531097   -1.842986    0.259776
C      1.788469   -1.266509    0.102040
C      1.920481    0.115791   -0.018772
C      0.779083    0.936587   -0.011826
O      0.956971    2.321177   -0.093841
O      3.199512    0.659393   -0.140848
N     -1.896565   -1.674439    0.520948
O     -2.120566   -2.824348    0.089372
O     -2.783735   -1.115623    1.412101
H     -1.603395    1.987644   -0.828184
H     -1.956281    1.712275    0.930717
H     -2.627789    0.632919   -0.360874
H      0.459908   -2.915306    0.392447
H      2.669174   -1.896379    0.097259
H      0.204913    2.989320    0.011034
H      3.357756    1.655573   -0.232829
