10

C      1.318154   -0.037820    0.023701
C     -0.050378    0.518947   -0.236033
O     -0.157871    1.626224   -0.739657
C     -1.289969   -0.252510    0.108351
H      1.868137    0.636470    0.713115
H      1.876276   -0.111501   -0.933123
H      1.265790   -1.047379    0.482137
H     -1.897149    0.326525    0.835325
H     -1.889012   -0.421442   -0.810915
H     -1.043977   -1.237512    0.557100
