22

C      2.768629    0.425792   -0.583805
C      1.415360   -0.277432   -0.435097
C      0.547590    0.415314    0.637719
C     -0.798880   -0.288612    0.900367
C     -1.740832   -0.383680   -0.321054
C     -2.119540    0.994909   -0.867837
O     -2.918250   -1.049259    0.055521
O      1.604539   -1.638617   -0.138145
H      2.619198    1.484393   -0.885902
H      3.331625    0.399933    0.373695
H      3.371856   -0.081572   -1.366289
H      0.902511   -0.204313   -1.417055
H      1.110258    0.437947    1.596942
H      0.369799    1.473568    0.351014
H     -1.323117    0.255999    1.716140
H     -0.598127   -1.313998    1.280123
H     -1.247375   -0.957073   -1.138225
H     -2.522044    1.640038   -0.057829
H     -2.897409    0.885248   -1.653183
H     -1.240644    1.488862   -1.331686
H     -2.696015   -2.015087    0.119942
H      2.060869   -1.692359    0.742461
