43

C     -5.051426    0.526979    1.831691
C     -4.862081   -0.235890    0.514443
C     -4.334343   -1.627143    0.822524
C     -3.040115   -1.934581    0.695773
C     -2.090191   -0.964033    0.132007
C     -0.720846   -1.249976    0.049608
C      0.159487   -0.322266   -0.530254
C     -0.345907    0.889605   -1.033258
C     -1.717258    1.158767   -0.977138
C     -2.585752    0.239702   -0.382883
O     -3.957096    0.506472   -0.317741
O      0.521437    1.829921   -1.586207
C      1.898757    1.841185   -1.233755
C      2.511971    0.433170   -1.369885
C      1.610263   -0.688743   -0.735305
O      2.241316   -1.023128    0.501657
C      3.504791   -0.470952    0.552113
C      3.744713    0.343620   -0.521052
C      4.962529    1.012437   -0.663087
C      5.950570    0.817409    0.316399
C      5.702023   -0.026856    1.422214
C      4.461726   -0.677639    1.543748
O      6.676420   -0.220561    2.398327
O      2.791695    0.167381   -2.724249
C     -6.202965   -0.351818   -0.218906
H     -4.079780    0.621314    2.362980
H     -5.769185   -0.002409    2.495405
H     -5.438039    1.549537    1.632662
H     -5.003881   -2.361629    1.254809
H     -2.694672   -2.915784    0.998091
H     -0.343223   -2.198251    0.413860
H     -2.103494    2.088806   -1.374597
H      1.983683    2.202432   -0.184040
H      2.438262    2.561650   -1.884957
H      1.639872   -1.592347   -1.384058
H      5.138536    1.671475   -1.503238
H      6.902024    1.324858    0.222328
H      4.253131   -1.326248    2.384675
H      7.580221    0.233981    2.340770
H      3.287066   -0.692437   -2.773842
H     -6.950443   -0.890160    0.403536
H     -6.069077   -0.905987   -1.172845
H     -6.600722    0.658138   -0.456878
