21

C      3.440828   -0.240591    1.203970
C      2.036114    0.215551    0.979924
O      1.261847    0.353657    1.965401
N      1.590469    0.535172   -0.345196
C      0.228573    0.981362   -0.632076
C     -0.746814   -0.198056   -0.566760
C     -2.173006    0.248665   -0.899650
C     -3.116442   -0.913579   -0.827895
O     -3.404513   -1.554645   -1.872653
O     -3.646505   -1.320216    0.393060
H      3.710827   -1.009417    0.450094
H      4.129752    0.624060    1.107437
H      3.550044   -0.681331    2.217692
H      2.278621    0.499959   -1.131027
H      0.200526    1.421606   -1.652939
H     -0.067582    1.773109    0.090364
H     -0.423630   -0.977144   -1.292221
H     -0.728891   -0.639271    0.453563
H     -2.202778    0.687132   -1.921331
H     -2.502137    1.029012   -0.179728
H     -3.415302   -0.835037    1.251769
