11

C     -0.272360    1.202565    0.446460
C      0.369989    0.056174    0.037999
N     -0.541816   -0.848300   -0.347838
C     -1.727191   -0.234864   -0.166985
N     -1.602169    1.021238    0.317710
N      1.783729   -0.162747    0.017862
O      2.567272    0.732679    0.394518
O      2.290027   -1.364776   -0.417895
H      0.189441    2.109699    0.813147
H     -0.376614   -1.813970   -0.708752
H     -2.680309   -0.697697   -0.386227
