35

C      0.890791   -1.662169   -0.274722
C      0.141868   -1.952041    1.037222
C     -0.485680   -0.665202    1.617031
O      0.496186    0.371522    1.721360
C      1.594244    0.482789    0.857406
C      2.451166    1.580101    0.982060
C      3.545560    1.722908    0.120696
C      3.779869    0.765182   -0.869865
C      2.929108   -0.341416   -1.003442
C      1.840597   -0.498514   -0.124636
O      3.161642   -1.281892   -2.006890
O      4.403182    2.814429    0.237830
C     -1.698465   -0.194776    0.830465
C     -1.578416    0.682729   -0.264132
C     -2.710774    1.078951   -0.990535
C     -3.978053    0.594185   -0.628361
C     -4.101508   -0.282708    0.452603
C     -2.972879   -0.677476    1.174577
O     -5.122560    0.970503   -1.330544
O     -2.579740    1.950419   -2.070794
O     -0.847942   -2.926650    0.829554
H      1.453677   -2.575545   -0.565800
H      0.166200   -1.435201   -1.085745
H      0.879510   -2.329830    1.784655
H     -0.817824   -0.894233    2.653627
H      2.260834    2.324558    1.744897
H      4.622329    0.884322   -1.539653
H      3.937870   -1.189740   -2.651720
H      4.260285    3.526863    0.944173
H     -0.611712    1.062102   -0.562396
H     -5.076063   -0.662188    0.732622
H     -3.093250   -1.364371    2.003284
H     -5.085285    1.602763   -2.121056
H     -1.677046    2.313844   -2.353653
H     -0.377721   -3.794221    0.719886
