43

C      2.346277   -0.465506   -2.564651
C      3.648279    0.077880   -2.494934
C      4.380436    0.022904   -1.294642
C      3.779599   -0.583290   -0.192106
C      2.516168   -1.111972   -0.260884
C      1.764819   -1.069731   -1.435331
C      2.220293   -1.605785    0.994695
C      3.336138   -1.330675    1.779779
N      4.289713   -0.713642    1.044993
C      0.918181   -2.176409    1.465653
C      0.008414   -1.071274    1.893294
O     -0.289047   -0.938264    3.111833
O     -0.476646   -0.174014    0.935076
C     -1.313447    0.941603    1.250121
C     -1.258123    1.967161    0.096120
C     -1.785026    1.385486   -1.250292
C     -2.849796    0.275912   -1.045263
C     -3.666359    0.519652    0.240708
C     -2.773438    0.465050    1.510880
O     -3.364022    1.259071    2.508312
O     -4.729787   -0.395114    0.346076
O     -3.718127    0.237538   -2.148585
O     -0.733432    0.858050   -2.019270
O      0.028144    2.522927   -0.040566
H      1.790585   -0.413925   -3.491837
H      4.084321    0.542918   -3.369394
H      5.375632    0.443304   -1.229327
H      0.765923   -1.483374   -1.480627
H      3.435113   -1.551187    2.834702
H      5.222561   -0.385609    1.380704
H      0.437553   -2.751857    0.646733
H      1.100778   -2.874546    2.311227
H     -0.912848    1.440161    2.162123
H     -1.933459    2.804341    0.382116
H     -2.266945    2.224425   -1.808729
H     -2.341574   -0.713019   -0.943211
H     -4.113415    1.536339    0.162904
H     -2.740330   -0.591439    1.866844
H     -2.983731    0.962878    3.376585
H     -4.343750   -1.309900    0.324842
H     -3.210684   -0.171963   -2.897389
H     -0.321697    1.615536   -2.511791
H      0.676758    1.779359   -0.147490
