44

C     -6.297152   -0.492658   -0.821532
C     -5.609001   -0.253759    0.489656
O     -5.878649   -0.970149    1.441875
C     -4.615966    0.865841    0.661741
C     -3.194304    0.357389    0.954707
C     -2.494858   -0.233780   -0.293386
C     -2.887457   -1.722635   -0.559622
O     -1.677136   -2.469032   -0.439471
C     -0.617093   -1.629838   -0.184003
C     -1.013286   -0.329472   -0.088980
C     -0.081887    0.703451    0.069322
C      1.288908    0.358094    0.248354
C      1.684214   -1.004263    0.147050
C      0.715069   -2.004495   -0.071342
C      3.116519   -1.365125    0.252544
O      3.459592   -2.578989    0.290953
C      4.147732   -0.300821    0.282695
C      3.760056    1.055611    0.378126
C      2.323311    1.363051    0.602350
O      1.995178    2.402868    1.233547
C      4.756535    2.065171    0.320429
C      6.106915    1.705456    0.268994
C      6.487242    0.365275    0.216799
C      5.510963   -0.634457    0.210695
O      7.840125    0.037367    0.158487
O      4.450813    3.427409    0.276886
O     -0.529873    2.024770    0.000701
O     -3.398961   -1.860105   -1.857126
H     -5.918009    0.192569   -1.608177
H     -7.388847   -0.331741   -0.701821
H     -6.120308   -1.538323   -1.149077
H     -4.952580    1.493886    1.514833
H     -4.600633    1.525216   -0.232728
H     -2.612938    1.231610    1.317919
H     -3.205366   -0.378849    1.788737
H     -2.688175    0.400671   -1.187205
H     -3.621021   -2.105411    0.183943
H      0.987912   -3.047915   -0.165692
H      6.866702    2.476926    0.243668
H      5.819903   -1.670610    0.148282
H      8.150884   -0.926235    0.115765
H      3.524572    3.786566    0.091448
H      0.087788    2.817874   -0.102610
H     -3.677433   -2.808414   -1.946680
