41

C     10.408548   -1.314976    1.064792
C      9.244352   -2.176605    1.558132
C      7.960135   -1.638655    1.080898
C      6.908379   -1.198039    0.689832
C      5.677182   -0.681918    0.231510
C      4.625968   -0.241202   -0.159891
C      3.394669    0.274988   -0.618321
C      2.343390    0.715607   -1.009606
C      1.111969    1.231358   -1.467497
C      0.059512    1.670930   -1.857354
C     -1.224440    2.204643   -2.330565
C     -2.302478    2.123561   -1.242629
C     -2.734571    0.672986   -0.962697
C     -3.741089    0.566513    0.194409
C     -5.146530    1.054057   -0.198205
C     -6.155704    0.953293    0.960803
C     -6.548462   -0.484673    1.336729
C     -7.246607   -1.189728    0.210672
O     -8.467072   -0.968782   -0.006371
O     -6.551291   -2.063276   -0.620722
O      9.399112   -3.510879    1.146636
H     10.307706   -0.277298    1.449561
H     10.434027   -1.286962   -0.046054
H     11.368168   -1.735108    1.433696
H      9.235393   -2.153021    2.668343
H     -1.545593    1.645089   -3.234934
H     -1.075678    3.267480   -2.616212
H     -3.178552    2.708373   -1.592834
H     -1.927003    2.598338   -0.308972
H     -3.167531    0.221708   -1.882377
H     -1.838443    0.075540   -0.687211
H     -3.794459   -0.502131    0.488781
H     -3.369460    1.139691    1.071859
H     -5.515223    0.486976   -1.079448
H     -5.091499    2.122596   -0.493191
H     -7.075825    1.511064    0.678991
H     -5.735009    1.457778    1.857843
H     -7.236108   -0.445331    2.209091
H     -5.660369   -1.065021    1.660495
H     -5.564810   -2.246962   -0.482439
H      9.415297   -3.522001    0.152892
