23

C     -1.646507   -2.404367    0.715531
C     -2.591850   -1.470745    0.296352
C     -2.200534   -0.166884   -0.011812
C     -0.848065    0.220290    0.093329
C      0.114341   -0.737989    0.493718
C     -0.303263   -2.041427    0.817576
C      1.556567   -0.406019    0.603292
O      2.230470   -0.903003    1.546896
C      2.237517    0.513858   -0.374021
N      3.591432    0.051159   -0.655716
O      3.778355   -0.865532   -1.481854
O      4.638480    0.481178    0.125581
O     -0.436296    1.539954   -0.164729
C     -1.282479    2.610581   -0.578111
F     -0.516274    3.748229   -0.741642
F     -2.245453    2.856742    0.384052
F     -1.886257    2.303205   -1.784219
H     -1.954215   -3.413269    0.958548
H     -3.632983   -1.755944    0.216082
H     -2.962945    0.533442   -0.320815
H      0.416449   -2.786576    1.134391
H      1.666373    0.555160   -1.327004
H      2.277137    1.537957    0.054577
