31

C     -2.583334   -1.329373   -0.123271
C     -3.964574   -1.331179    0.094271
C     -4.684628   -0.132639    0.056818
C     -4.015849    1.072670   -0.196926
C     -2.634691    1.077080   -0.414794
C     -1.910509   -0.126031   -0.391203
C     -0.418764   -0.118337   -0.590544
C      0.302361    0.059396    0.748686
C      1.794247    0.067090    0.549146
C      2.466245    1.270646    0.280901
C      3.850894    1.274135    0.062161
C      4.564691    0.072134    0.102327
C      3.902346   -1.133637    0.354002
C      2.517679   -1.136311    0.572644
O      4.627622   -2.322668    0.382628
O      4.525313    2.465051   -0.197682
O     -6.060297   -0.149422    0.275218
H     -2.038203   -2.264307   -0.081504
H     -4.475342   -2.264244    0.295624
H     -4.564187    2.005754   -0.221967
H     -2.129537    2.017020   -0.600155
H     -0.097909   -1.071831   -1.065688
H     -0.135897    0.706733   -1.281272
H     -0.018613    1.012797    1.223934
H      0.019387   -0.765578    1.439484
H      1.914932    2.202246    0.240356
H      5.634246    0.074477   -0.066908
H      2.006290   -2.073001    0.758552
H      4.178118   -3.213102    0.561409
H      4.037812    3.352677   -0.234421
H     -6.609847    0.701751    0.255539
