38

C      5.510622   -1.567460   -0.372016
C      4.591224   -0.618290    0.351927
C      5.092361    0.146324    1.414332
C      4.243116    1.027176    2.087388
O      4.684251    1.718117    3.042694
O      2.970389    1.142600    1.727357
C      2.440180    0.443533    0.728568
C      3.231741   -0.471521   -0.006161
C      2.638296   -1.194546   -1.058471
C      1.288560   -1.009310   -1.368344
C      0.503929   -0.107813   -0.642336
C      1.089600    0.621043    0.409352
O     -0.846004    0.032375   -1.000858
C     -1.795551    0.861903   -0.326299
C     -3.132679    0.882583   -1.123660
C     -4.335651    0.865569   -0.159392
C     -4.247189   -0.363961    0.777042
C     -2.778249   -0.715874    1.092230
O     -1.957176    0.433111    1.021885
O     -4.863597   -1.483928    0.191481
O     -5.543151    0.844950   -0.878421
O     -3.184842    1.987916   -1.992036
H      5.574399   -1.284877   -1.443843
H      6.538036   -1.546353    0.049930
H      5.125135   -2.604928   -0.283707
H      6.129232    0.061616    1.718291
H      3.205552   -1.903486   -1.646623
H      0.846696   -1.573457   -2.180086
H      0.510345    1.329281    0.985484
H     -1.395036    1.898483   -0.295316
H     -3.191822   -0.036649   -1.748654
H     -4.295548    1.781535    0.478433
H     -4.757129   -0.108942    1.736968
H     -2.401034   -1.511835    0.408514
H     -2.717682   -1.132208    2.120095
H     -5.832103   -1.427211    0.403002
H     -5.720544    1.776066   -1.173619
H     -3.218678    2.808471   -1.433667
