25

C     -1.257674    1.790036   -0.920980
C     -1.561094    0.452976   -0.285027
C     -0.628313   -0.194209    0.560907
N     -0.948292   -1.401193    1.109827
C     -2.156941   -1.981425    0.890298
O     -2.424777   -3.095130    1.416388
N     -3.077800   -1.363787    0.106783
C     -2.810992   -0.166660   -0.478911
O     -3.694323    0.379120   -1.194936
C      0.741637    0.382952    0.839108
C      1.771856   -0.172577   -0.150566
C      3.158183    0.415293    0.107289
O      4.070062   -0.120405   -0.810281
H     -1.280318    2.583488   -0.145033
H     -1.990395    2.054250   -1.711363
H     -0.258104    1.773433   -1.401573
H     -0.253864   -1.895978    1.715587
H     -4.007228   -1.817609   -0.048963
H      1.046155    0.113617    1.874151
H      0.726029    1.492340    0.798171
H      1.822481   -1.279247   -0.049913
H      1.463775    0.068808   -1.191019
H      3.120643    1.522106   -0.007207
H      3.481886    0.166978    1.143179
H      4.947407    0.292823   -0.599294
