18

C     -1.613116   -1.458048   -0.247238
C     -0.674045   -0.256113   -0.476234
C      0.772999   -0.668763   -0.118151
C      1.774084    0.423367   -0.401918
O      2.207995    0.568351   -1.576207
C      2.237793    1.341355    0.651668
O      1.824090    1.224240    1.835284
O      3.142212    2.349710    0.342626
C     -1.108384    0.910608    0.388339
O     -1.381556    0.736851    1.606324
O     -1.151694    2.195956   -0.139615
O     -0.715019    0.106979   -1.837560
H     -1.342967   -2.292219   -0.929875
H     -1.542889   -1.824326    0.799916
H     -2.667940   -1.172034   -0.449321
H      0.832389   -0.972439    0.950262
H      1.058219   -1.562395   -0.716332
H     -1.652173    0.348919   -2.063260
