29

C     -4.643072   -1.268679   -1.091918
C     -4.611728   -0.053417   -0.408462
C     -3.391205    0.499032   -0.006776
C     -2.173930   -0.163434   -0.286250
C     -2.228996   -1.391775   -0.978826
C     -3.452962   -1.936918   -1.376657
C     -0.841448    0.381123    0.119447
C     -0.688625    1.599042    0.813469
C      0.590867    2.039085    1.156597
O      0.727395    3.128591    1.777424
C      1.705474    1.263932    0.806317
C      1.484564    0.055491    0.112471
O      0.247081   -0.323366   -0.193199
C      2.569070   -0.752297   -0.258369
C      3.879292   -0.356064    0.062524
C      4.096153    0.844889    0.751868
C      3.018373    1.652107    1.122897
O      4.960227   -1.156290   -0.304350
O      2.328818   -1.943697   -0.944140
H     -5.589885   -1.692507   -1.400856
H     -5.536868    0.463834   -0.188349
H     -3.426393    1.439888    0.517886
H     -1.324708   -1.937673   -1.216583
H     -3.477549   -2.880148   -1.907128
H     -1.529856    2.213228    1.094151
H      5.103219    1.154307    1.001251
H      3.213765    2.575138    1.654915
H      5.914004   -0.893370   -0.085051
H      3.078923   -2.560051   -1.232937
