31

C      3.387867    0.760337    0.435411
C      2.246129   -0.048256    0.483041
C      2.390259   -1.408706    0.161714
O      1.389173   -2.175771    0.160770
N      3.617719   -1.905229   -0.153127
C      4.714074   -1.099648   -0.175600
O      5.841808   -1.579466   -0.469682
N      4.594142    0.223530    0.115405
C      0.902565    0.554608    0.800434
N      0.244375    0.963892   -0.446050
C     -0.883483    1.883890   -0.221809
C     -2.041706    1.280282    0.599646
C     -2.680439    0.054970   -0.070602
C     -3.948318   -0.378912    0.670237
N     -4.539405   -1.542219    0.016474
H      3.316356    1.819269    0.653236
H      3.719383   -2.919927   -0.385293
H      5.436682    0.841462    0.090802
H      0.278625   -0.188279    1.343957
H      1.042833    1.429461    1.474377
H     -0.079164    0.118297   -0.969515
H     -1.275787    2.209913   -1.209416
H     -0.517223    2.801615    0.288322
H     -2.815327    2.071060    0.713717
H     -1.696582    1.017815    1.622074
H     -1.961368   -0.791824   -0.064922
H     -2.940146    0.297313   -1.124464
H     -3.705041   -0.624768    1.728616
H     -4.684661    0.454802    0.661584
H     -3.912688   -2.363607    0.180965
H     -5.440655   -1.755903    0.501910
