18

C     -2.270559   -0.321144   -0.082358
C     -0.900121   -0.607112   -0.698117
C      0.270916   -0.188726    0.218156
C      0.388982    1.340578    0.349551
O      1.472483    1.668914    1.176281
C      1.557258   -0.766902   -0.309748
O      1.980562   -0.443859   -1.452937
O      2.283024   -1.663163    0.468867
H     -3.061583   -0.766898   -0.721656
H     -2.343983   -0.768886    0.931431
H     -2.456451    0.770732   -0.020807
H     -0.825217   -0.090294   -1.680166
H     -0.839478   -1.701837   -0.888293
H      0.095529   -0.612406    1.232342
H      0.529836    1.799292   -0.655600
H     -0.539913    1.753082    0.799293
H      1.508295    2.660386    1.203872
H      3.150422   -2.061756    0.129889
