39

C     -4.528480   -0.520057    2.055133
C     -3.852120   -0.500175    0.678067
C     -4.030207   -1.863173   -0.008115
C     -2.359034   -0.115902    0.831774
C     -1.620363    0.127257   -0.503723
C     -2.241780    1.263388   -1.266902
O     -2.148824    2.444579   -0.836180
O     -2.937841    1.007021   -2.443894
N     -0.206167    0.423206   -0.251684
C      0.780053    0.377718   -1.296354
O      0.440376    0.068286   -2.471010
C      2.228348    0.699745   -1.011399
C      2.811818   -0.272098    0.028751
C      4.289068   -0.070682    0.188866
C      5.279818   -0.622210   -0.591667
N      6.475499   -0.154032   -0.181232
C      6.176651    0.679925    0.838549
N      4.854850    0.756202    1.081246
N      2.378823    2.088497   -0.567982
H     -4.447106    0.477686    2.537494
H     -4.052998   -1.277738    2.715066
H     -5.608136   -0.760976    1.951364
H     -4.371022    0.269924    0.066802
H     -3.708641   -1.814136   -1.068532
H     -3.443092   -2.647370    0.516378
H     -5.101157   -2.158800   -0.005345
H     -1.832319   -0.921606    1.390255
H     -2.283921    0.808558    1.447577
H     -1.674732   -0.799540   -1.112890
H     -3.369753    1.759769   -2.966105
H      0.096404    0.678611    0.715463
H      2.805062    0.574477   -1.956238
H      2.318726   -0.131291    1.014477
H      2.627011   -1.319982   -0.294829
H      5.142747   -1.313790   -1.412412
H      6.920989    1.234658    1.394251
H      4.376543    1.341178    1.801848
H      1.995321    2.720814   -1.308045
H      1.819583    2.247312    0.301179
