26

C      4.356904    0.077840   -0.783236
O      3.032410   -0.424115   -0.927234
C      1.939052   -0.003999   -0.155837
C      0.682795   -0.588906   -0.409610
C     -0.405713   -0.175020    0.357186
C     -0.281551    0.779001    1.332253
C      0.941577    1.382310    1.612824
C      2.061872    0.983831    0.861337
N     -1.466140    1.028058    1.917543
C     -2.362622    0.221167    1.305371
C     -1.734362   -0.552243    0.333866
C     -2.394156   -1.515122   -0.604413
C     -2.717239   -0.831986   -1.896675
O     -1.947270   -0.958987   -2.884848
O     -3.843667   -0.021901   -2.005680
H      5.017735   -0.427167   -1.517145
H      4.374839    1.170367   -0.981448
H      4.735608   -0.131794    0.239440
H      0.567747   -1.339584   -1.180962
H      1.028457    2.137280    2.383567
H      3.015291    1.447623    1.073390
H     -1.661560    1.714436    2.679887
H     -3.418450    0.201800    1.542354
H     -1.723077   -2.381888   -0.786701
H     -3.329326   -1.903837   -0.147824
H     -4.469154    0.112833   -1.220270
