25

C     -2.004899    0.978489    0.180007
C     -1.830356   -0.425395   -0.431568
C     -0.599061   -1.183378    0.139323
C      0.803090   -0.691366   -0.361479
C      1.619222    0.068774    0.722990
C      3.017961    0.392377    0.250824
N      3.860507    0.926858    1.057500
O      0.953358    1.222453    1.174075
O      0.737043   -0.005787   -1.590246
O     -0.740334   -2.544029   -0.193093
O     -2.984708   -1.179912   -0.150267
O     -3.215510    1.551928   -0.235609
H     -2.017253    0.904870    1.288317
H     -1.171854    1.648910   -0.107578
H     -1.715828   -0.330620   -1.536903
H     -0.645350   -1.093594    1.251259
H      1.406447   -1.604504   -0.567146
H      1.726441   -0.613734    1.594553
H      3.321034    0.167035   -0.768537
H      4.817361    1.147224    0.745727
H      1.122717    1.955045    0.525734
H      0.502510    0.938388   -1.413848
H     -0.214868   -3.063796    0.470752
H     -3.651343   -0.975619   -0.857550
H     -3.096327    1.809385   -1.187235
