33

C     -3.763955   -0.440378   -0.701342
C     -2.576796   -0.263017    0.005580
N     -1.388464   -0.091704   -0.652310
C     -1.372364   -0.118390   -2.027395
O     -0.293156    0.013937   -2.665293
N     -2.526777   -0.291200   -2.722822
C     -3.717771   -0.449095   -2.093303
N     -4.909201   -0.627804   -2.859387
C     -0.148699    0.071831    0.137058
C      0.658705   -1.250230    0.137458
C      1.966998   -1.073302    0.927139
C      2.713899    0.176293    0.419162
C      1.761155    1.396125    0.402148
O      0.624626    1.132589   -0.404873
C      2.476918    2.597112   -0.151091
O      2.585635    2.748236   -1.397032
O      3.068049    3.525914    0.701206
O      3.850770    0.430805    1.208234
O      2.766696   -2.215478    0.760269
O     -0.102450   -2.308305    0.665977
H     -4.700073   -0.571275   -0.173201
H     -2.616183   -0.266558    1.088470
H     -4.867169   -0.635363   -3.902665
H     -5.834842   -0.752655   -2.391928
H     -0.417736    0.325240    1.191332
H      0.919869   -1.510450   -0.911425
H      1.715168   -0.939673    2.006633
H      3.055622   -0.020239   -0.622048
H      1.440721    1.641532    1.441450
H      3.022786    3.420904    1.707669
H      3.539494    0.623820    2.131302
H      3.425482   -2.216170    1.502965
H     -0.356958   -2.063051    1.593994
