14

C      0.048885   -0.632298    0.119838
C     -0.935671    0.212160   -0.690151
N     -1.961145   -0.641235   -1.281689
C      1.119382    0.232116    0.714116
O      0.985722    0.679947    1.884157
N      2.269607    0.587448   -0.052873
H     -0.493126   -1.162953    0.932999
H      0.514917   -1.397480   -0.538120
H     -0.388022    0.738719   -1.503048
H     -1.412720    0.974816   -0.033662
H     -2.564212   -0.039663   -1.888310
H     -2.575207   -0.995881   -0.512490
H      2.383596    0.243346   -1.032093
H      3.007994    1.200957    0.357725
