17

C     -2.295710   -0.743021    0.447911
C     -1.320958   -0.073072   -0.515613
C     -0.686704    1.136039    0.088216
O     -1.285852    2.183063    0.449712
C      0.741470    0.910728    0.164556
C      0.987181   -0.289464   -0.328852
O     -0.188881   -0.913798   -0.743959
C      2.338020   -0.915815   -0.436023
O      1.695066    1.792317    0.664498
H     -2.690045   -1.674486   -0.009916
H     -1.786770   -1.000607    1.401786
H     -3.148156   -0.063569    0.661025
H     -1.814857    0.179318   -1.478319
H      2.788289   -1.014063    0.574022
H      2.250023   -1.924108   -0.891517
H      2.994711   -0.287658   -1.073819
H      1.423173    2.698195    1.026290
