13

C     -0.191424   -0.043814   -0.803450
C     -1.278885    0.426095    0.166753
O     -1.743726   -0.639782    0.950988
C      1.004585   -0.578096   -0.065726
O      1.101010   -1.817159    0.140504
C      2.047477    0.316258    0.455833
O      1.974425    1.562341    0.288768
H     -0.604693   -0.832645   -1.469212
H      0.115401    0.806065   -1.450407
H     -0.870783    1.213778    0.835494
H     -2.120624    0.876840   -0.406345
H     -2.323880   -1.192036    0.364317
H      2.891116   -0.097845    0.992483
