28

C      4.257405    1.193988    0.438804
C      2.977729    0.495827    0.765239
O      2.854975   -0.096786    1.871472
N      1.903966    0.489498   -0.185697
C      0.635101   -0.197619    0.074595
C     -0.442506    0.277287   -0.918257
C     -1.802043   -0.261434   -0.564389
C     -2.350395   -1.440301   -1.021748
N     -3.565419   -1.613802   -0.461996
C     -3.727958   -0.535024    0.333998
N     -2.667164    0.295387    0.303446
C     -2.540855    1.570751    1.002303
C      0.834813   -1.684854   -0.022606
O      1.404004   -2.185883   -1.029787
O      0.363012   -2.513056    0.990887
H      4.045903    2.245785    0.154119
H      4.753973    0.678446   -0.409353
H      4.940381    1.189674    1.314844
H      2.046142    0.984969   -1.095773
H      0.298112    0.058516    1.103514
H     -0.175867   -0.036472   -1.951553
H     -0.483696    1.387697   -0.914269
H     -1.895132   -2.132614   -1.717562
H     -4.616361   -0.360636    0.927388
H     -3.325791    1.664656    1.782726
H     -1.548238    1.639560    1.493501
H     -2.651173    2.404450    0.277767
H      0.477079   -3.518010    0.935638
