46

C      3.990588   -3.451467    0.853902
C      3.085063   -2.259879    0.691167
C      3.641030   -1.015450    0.368328
C      2.834048    0.113529    0.206686
C      1.423247    0.028672    0.376645
C      0.875992   -1.238562    0.691302
C      1.687645   -2.372089    0.848263
N      1.069493   -3.628728    1.163558
N      0.635176    1.161347    0.225661
C      1.230916    2.347204   -0.129485
N      0.513700    3.484856   -0.329300
C      1.115469    4.653068   -0.677778
O      0.412483    5.682842   -0.853441
N      2.468892    4.718136   -0.837229
C      3.262607    3.626183   -0.658912
O      4.509935    3.721231   -0.816747
C      2.687637    2.407177   -0.304217
N      3.421894    1.289750   -0.124086
C     -0.835014    1.121746    0.409642
C     -1.536253    0.618077   -0.875067
C     -3.049889    0.309497   -0.689314
C     -3.324671   -0.952592    0.173458
C     -4.829988   -1.251410    0.243296
O     -5.055008   -2.371035    1.054757
O     -2.661468   -2.056833   -0.389920
O     -3.735305    1.435931   -0.194985
O     -1.356012    1.541720   -1.920077
H      3.882304   -3.869346    1.876847
H      3.728211   -4.227852    0.104811
H      5.058046   -3.181054    0.707338
H      4.712670   -0.918983    0.235881
H     -0.186377   -1.380450    0.807194
H      0.033266   -3.697410    1.276105
H      1.620444   -4.505694    1.287428
H      2.907566    5.629154   -1.104555
H     -1.230947    2.124084    0.679352
H     -1.092530    0.506078    1.292850
H     -1.036965   -0.319364   -1.197176
H     -3.456321    0.099642   -1.703828
H     -2.959407   -0.774252    1.210914
H     -5.220572   -1.447113   -0.780953
H     -5.369367   -0.377280    0.671496
H     -6.036011   -2.521501    1.051132
H     -2.497114   -2.704686    0.344357
H     -3.532966    1.516386    0.773121
H     -1.806140    2.386717   -1.657261
