40

C      0.745718    0.260430   -0.423079
C      1.750328   -0.623729   -0.830403
C      1.439135   -1.987794   -0.895477
O      2.317055   -2.830954   -1.225647
N      0.181255   -2.408081   -0.603240
C     -0.789275   -1.531179   -0.228268
O     -1.948316   -1.966997    0.011353
N     -0.508615   -0.191034   -0.117985
C     -1.541231    0.788215    0.283668
C     -2.566986    1.011029   -0.843839
C     -3.903922    0.727210   -0.179636
C     -3.553680    0.767665    1.305302
O     -2.218052    0.343827    1.440736
C     -4.481861   -0.104723    2.163026
O     -4.371103   -1.460005    1.817856
O     -4.871392    1.691305   -0.509220
O     -2.483522    2.317668   -1.365660
C      3.138647   -0.111488   -1.118950
N      3.932203   -0.115331    0.116603
C      5.230150    0.551387   -0.064301
C      6.163405   -0.258314   -0.922096
O      6.789564   -1.229727   -0.422530
O      6.317764    0.032576   -2.274464
H      0.977613    1.317330   -0.352026
H     -0.046202   -3.426946   -0.669326
H     -1.059987    1.758059    0.549623
H     -2.410882    0.295200   -1.681059
H     -4.247674   -0.289451   -0.484948
H     -3.629108    1.816527    1.675939
H     -4.241440    0.042605    3.241060
H     -5.534363    0.216668    2.014890
H     -3.575723   -1.812796    2.295747
H     -5.746766    1.323347   -0.220955
H     -2.642617    2.958156   -0.622944
H      3.068283    0.920947   -1.528827
H      3.623184   -0.742351   -1.896667
H      4.095242   -1.106422    0.415238
H      5.697317    0.693044    0.933734
H      5.091534    1.566805   -0.495884
H      5.814320    0.797321   -2.707906
