45

C     -5.822727   -0.473832    0.871717
C     -4.657639   -0.066315   -0.040445
C     -4.829599   -0.776062   -1.400724
C     -4.679987    1.444104   -0.171616
O     -5.238874    1.992188   -1.159378
O     -4.141165    2.250090    0.828799
O     -3.447252   -0.510547    0.592237
C     -2.118747   -0.326107    0.161856
C     -1.755859    0.498399   -0.921663
C     -0.413588    0.636202   -1.287396
C      0.592770   -0.035285   -0.575604
C      0.228671   -0.860194    0.502427
C     -1.112677   -0.996498    0.866983
C      2.047172    0.109151   -0.987068
C      2.512509   -1.187413   -1.680125
C      4.027358   -1.193655   -1.866219
C      4.718992   -1.182318   -0.503084
C      4.215855   -0.065090    0.377693
C      5.015487    0.360017    1.451179
C      4.582096    1.382145    2.296654
C      3.346739    1.990805    2.080383
C      2.532716    1.568736    1.027853
C      2.934651    0.512581    0.186259
H     -6.796170   -0.153385    0.440143
H     -5.710428   -0.007781    1.874660
H     -5.840832   -1.576878    1.007016
H     -5.825218   -0.550193   -1.840438
H     -4.057271   -0.462291   -2.129797
H     -4.747964   -1.876337   -1.268967
H     -3.718391    1.852418    1.658753
H     -2.489212    1.048410   -1.488586
H     -0.160441    1.272749   -2.126146
H      0.985507   -1.394822    1.063073
H     -1.374013   -1.632241    1.703529
H      2.137572    0.928866   -1.734951
H      2.022435   -1.269567   -2.674940
H      2.219856   -2.080870   -1.084497
H      4.328630   -2.106874   -2.423407
H      4.341185   -0.306222   -2.459209
H      4.539849   -2.151063    0.011988
H      5.814073   -1.076502   -0.664251
H      5.981013   -0.097583    1.629168
H      5.209099    1.708238    3.116450
H      3.019716    2.794098    2.727930
H      1.584107    2.066730    0.870207
