33

C      3.040898   -1.148473   -0.150398
C      4.341637   -0.798142    0.223371
C      4.575361    0.375174    0.951596
C      3.496424    1.198013    1.299082
C      2.194310    0.849440    0.927509
C      1.950870   -0.333944    0.206168
C      0.576773   -0.712996   -0.201798
O      0.418276   -1.467480   -1.199762
N     -0.569536   -0.249944    0.536779
C     -1.956510   -0.387082    0.077679
C     -2.172601    0.382981   -1.246749
C     -3.651043    0.494137   -1.654943
C     -4.426299    1.365847   -0.715454
O     -4.318634    2.619552   -0.783063
O     -5.243772    0.788922    0.251408
C     -2.339453   -1.845849    0.000518
O     -2.279987   -2.472364   -1.091138
O     -2.716894   -2.529204    1.152689
N      5.906358    0.733389    1.332570
H      2.886391   -2.063152   -0.709414
H      5.167062   -1.441443   -0.054712
H      3.664909    2.113424    1.852417
H      1.386913    1.521548    1.185763
H     -0.422149    0.179003    1.477670
H     -2.608478    0.081513    0.846904
H     -1.748382    1.406621   -1.146551
H     -1.618459   -0.114929   -2.070724
H     -4.117439   -0.512702   -1.702926
H     -3.708979    0.932203   -2.674764
H     -5.764185    1.364661    0.902376
H     -2.751289   -2.063126    2.051425
H      6.717317    0.127148    1.076247
H      6.090591    1.607254    1.874141
