30

C     -4.529251    0.392144    0.402754
C     -3.026674    0.158641    0.528205
C     -2.465589   -0.522542   -0.727108
C     -0.969696   -0.835707   -0.590822
N     -0.174671    0.393775   -0.466128
C      0.508289    0.708353    0.790574
C      1.804438   -0.099011    0.940453
C      2.846130    0.272509   -0.123696
C      4.158834   -0.474775    0.106281
O      5.078941   -0.117982   -0.887004
N      0.033353    1.236947   -1.572682
O     -0.423161    0.958544   -2.700769
H     -4.906012    0.889798    1.321108
H     -5.061404   -0.575148    0.279469
H     -4.746580    1.044678   -0.469646
H     -2.526776    1.139500    0.680544
H     -2.834843   -0.477942    1.419339
H     -3.006750   -1.479167   -0.896173
H     -2.638233    0.124757   -1.613287
H     -0.627328   -1.405500   -1.481186
H     -0.816501   -1.493149    0.293234
H     -0.163014    0.477855    1.646095
H      0.733246    1.796405    0.838141
H      2.224708    0.104806    1.949607
H      1.577100   -1.185481    0.880029
H      2.459959    0.011882   -1.132784
H      3.041010    1.366923   -0.089939
H      4.569013   -0.209725    1.106774
H      3.974644   -1.572119    0.067383
H      5.906816   -0.629268   -0.691501
