18

C     -2.922352   -0.019053    0.449185
C     -1.493480    0.082516   -0.076258
C     -0.529187   -0.744267    0.779829
C      0.871999   -0.640505    0.247186
O      1.287338   -1.516648   -0.558712
C      1.749146    0.488499    0.616682
O      1.330069    1.384295    1.398384
C      3.137354    0.587411    0.065963
H     -3.267616   -1.074700    0.427083
H     -2.978554    0.363998    1.490445
H     -3.597340    0.588674   -0.189583
H     -1.183118    1.150276   -0.068139
H     -1.469038   -0.282784   -1.126390
H     -0.557918   -0.391872    1.833919
H     -0.845640   -1.810567    0.773174
H      3.095793    0.666704   -1.040565
H      3.654713    1.483931    0.469223
H      3.717829   -0.315907    0.348025
