21

C     -2.339752   -2.099275    0.603668
O     -2.233491   -0.693839    0.400640
C     -1.032415   -0.012746    0.143911
C      0.203243   -0.685245    0.063860
C      1.390367    0.020701   -0.194280
C      1.332387    1.412469   -0.372854
C      0.109443    2.089626   -0.295179
C     -1.070473    1.381545   -0.037745
O     -2.276342    2.080479    0.034660
O      0.058137    3.471295   -0.473318
C      2.683390   -0.695768   -0.276338
O      3.750037   -0.064405   -0.507887
O      2.734533   -2.076037   -0.098363
H     -1.743624   -2.403429    1.489854
H     -3.402614   -2.359611    0.784960
H     -1.990031   -2.643230   -0.299112
H      0.244106   -1.756889    0.201880
H      2.234853    1.976922   -0.572819
H     -3.159148    1.619060    0.218106
H      0.893173    4.013882   -0.661065
H      3.614221   -2.575506   -0.152578
