22

C     -1.398127   -0.176994   -0.616043
C     -1.353898    0.483661    0.546467
C     -0.055744    0.706835    1.221125
O     -0.013820    1.329013    2.315994
C      1.197417    0.203353    0.617935
C      1.152658   -0.465227   -0.558522
C     -0.148858   -0.684035   -1.226298
O     -0.190245   -1.306275   -2.321153
O      2.294458   -0.970160   -1.188706
O      2.389414    0.448222    1.307122
O     -2.537755    0.957206    1.112646
O     -2.627387   -0.381638   -1.243229
O      0.052991    0.400632    0.000000
O      0.040852    0.402052    0.000000
H      3.234394   -0.883372   -0.830742
H      3.303896    0.154789    0.996042
H     -2.544930    1.461462    1.990957
H     -2.701473   -0.876837   -2.123595
H     -0.802771   -0.097639    0.000000
H      0.749780   -0.302993    0.000000
H     -0.799451   -0.121871    0.000000
H      0.758600   -0.280181    0.000000
