12

C      0.287944   -1.012490    0.134183
C      0.803907    0.385303   -0.026110
C     -0.179129    1.267119   -0.162970
N     -1.448249    0.635888   -0.118882
C     -1.173692   -0.742806    0.060612
O     -2.071307   -1.621291    0.145678
O      2.150479    0.731310   -0.032506
H      0.569068   -1.430571    1.123563
H      0.619037   -1.658787   -0.705685
H     -0.039676    2.332403   -0.292067
H     -2.383702    1.091763   -0.201307
H      2.865322    0.022159    0.075491
