44

C      3.971401   -2.490517   -0.725154
C      2.779301   -1.644891   -0.354115
C      2.904543   -0.296946   -0.281303
C      1.710873    0.536016    0.077123
O      1.755120    1.792314    0.035163
C      0.448001   -0.139781    0.437731
C      0.330552   -1.446271    0.322228
C      1.466847   -2.290841   -0.075090
O      1.324334   -3.539993   -0.160775
N     -0.996889   -1.903829    0.537081
C     -1.699217   -2.754159   -0.410771
C     -2.975281   -2.001775   -0.757376
C     -3.022695   -0.767670    0.029450
C     -1.799582   -0.762065    0.948090
C     -0.879479    0.492687    0.759749
C     -0.820235    1.406087    2.004934
O     -0.199608    2.655008    1.706938
C     -0.828927    3.676069    0.986334
O     -2.024617    3.554963    0.604629
N     -0.108883    4.867833    0.684702
O     -2.228771   -0.934969    2.278141
N     -2.694100   -0.704770   -1.416946
C     -3.850475   -0.240586   -2.198068
O      4.166733    0.266046   -0.551344
C      4.493171    1.649055   -0.479421
H      4.318049   -2.222010   -1.745512
H      4.796440   -2.316121   -0.002290
H      3.733019   -3.573903   -0.715741
H     -1.099905   -2.924169   -1.331664
H     -1.943694   -3.724706    0.068837
H     -3.932825   -2.509537   -1.009546
H     -4.027210   -0.414477    0.353934
H     -1.207988    1.086403   -0.120771
H     -1.845111    1.595206    2.393131
H     -0.240089    0.908744    2.811557
H     -0.563248    5.640599    0.149308
H      0.882341    4.973950    0.994352
H     -1.441274   -1.213539    2.815408
H     -4.839037   -0.554980   -1.789899
H     -3.831760    0.868239   -2.245036
H     -3.764595   -0.629063   -3.234130
H      5.574021    1.774582   -0.694478
H      3.919154    2.218706   -1.239923
H      4.291598    2.039060    0.540533
