18

C      0.733776   -0.677017   -0.402022
C     -0.415064    0.296941   -0.101176
C     -1.757862   -0.281688   -0.556467
C     -2.869839    0.671162   -0.250654
O     -3.202494    1.547614   -1.091274
O     -3.506541    0.623774    0.983037
C      2.101553   -0.099968   -0.013896
C      2.250521    0.027859    1.471200
O      2.504697   -0.987020    2.171844
O      2.075479    1.261652    2.085124
H      0.567118   -1.637619    0.133975
H      0.746477   -0.895155   -1.492435
H     -0.231149    1.258576   -0.629748
H     -0.457310    0.496464    0.992073
H     -1.733434   -0.480825   -1.650310
H     -1.950831   -1.243104   -0.032851
H      2.898485   -0.774006   -0.395952
H      2.246417    0.892361   -0.493436
