17

C     -2.716327   -0.468697    0.344956
C     -1.396549    0.219655    0.530392
O     -0.993949    0.440068    1.662660
C     -0.560491    0.641246   -0.647169
C      0.664146   -0.226708   -0.753597
O      0.539435   -1.403041   -1.062156
C      2.038580    0.326114   -0.493153
C      2.594373   -0.250006    0.769271
O      2.343542    0.292907    1.877380
O      3.350504   -1.414616    0.728795
H     -2.690795   -1.459426    0.845171
H     -3.522439    0.145924    0.797403
H     -2.945557   -0.622091   -0.730262
H     -0.282649    1.709708   -0.523488
H     -1.138300    0.562280   -1.592724
H      2.011604    1.433629   -0.408074
H      2.704871    0.073053   -1.345405
