49

C     -2.597607   -0.507577    2.572911
C     -1.430281   -1.173847    1.829476
C     -1.468287   -1.017547    0.274568
C     -0.438835   -2.021334   -0.337520
C      0.983059   -1.616603   -0.038776
C      1.295345   -0.326307   -0.217205
C      0.286389    0.676629   -0.729668
C     -1.123735    0.496613   -0.126066
N     -2.001632    1.059535   -1.158763
C     -1.431235    0.688431   -2.455897
C      0.082252    0.614608   -2.255193
C     -3.431927    0.772319   -0.996692
C     -3.701326   -0.685937   -0.832364
C     -2.828845   -1.484427   -0.219823
C      0.959360    1.960967   -0.317507
C      0.497024    3.274370   -0.447910
C      1.311988    4.321625    0.011909
C      2.566348    4.045435    0.590323
C      3.015280    2.720296    0.709872
C      2.193293    1.697445    0.237622
N      2.467836    0.310291    0.301298
C      1.964314   -2.620046    0.430682
O      1.564319   -3.648086    1.042962
O      3.326032   -2.453808    0.158490
C      4.313171   -3.386912    0.580138
H     -2.679255    0.570978    2.333124
H     -2.436917   -0.605747    3.667166
H     -3.557266   -1.006856    2.324006
H     -0.479104   -0.752200    2.222457
H     -1.440357   -2.252170    2.103586
H     -0.639943   -3.049704    0.035441
H     -0.562584   -2.071914   -1.440784
H     -1.204989    1.148337    0.769563
H     -1.687759    1.459222   -3.213997
H     -1.815481   -0.298877   -2.797246
H      0.477966   -0.328551   -2.691404
H      0.580404    1.461377   -2.778270
H     -3.998947    1.159290   -1.870860
H     -3.806089    1.304131   -0.096034
H     -4.653192   -1.088598   -1.165083
H     -3.107622   -2.524481   -0.069260
H     -0.467522    3.481880   -0.892252
H      0.973631    5.345693   -0.077283
H      3.186459    4.858059    0.945707
H      3.975505    2.499227    1.157407
H      3.235840   -0.119050    0.861860
H      4.308900   -3.469916    1.687628
H      5.311839   -3.034762    0.249866
H      4.114186   -4.381503    0.127795
