41

C      0.620339   -0.455088   -1.914211
C      1.006228   -0.622651   -0.473732
C      0.333271   -0.112599    0.629552
N      1.070392   -0.277864    1.743160
C      2.203626   -0.906683    1.377541
C      2.208872   -1.127952    0.006275
C      3.339500   -1.701625   -0.810782
C      4.145854   -0.613807   -1.531247
C      4.862548    0.277532   -0.565170
O      5.996799   -0.050534   -0.125095
O      4.255307    1.447857   -0.120775
C      3.303834   -1.245989    2.334240
C     -0.944149    0.616124    0.618883
C     -2.104030    0.055340    0.251692
C     -3.416232    0.704094    0.201661
C     -3.784821    2.024792    0.469461
C     -5.138419    2.377922    0.335501
C     -6.091687    1.417383   -0.060095
C     -5.700310    0.094484   -0.326212
C     -4.352949   -0.236079   -0.188731
N     -3.771656   -1.515804   -0.410203
C     -2.386548   -1.338477   -0.127511
O     -1.549754   -2.278744   -0.164175
H      0.997761   -1.305477   -2.518033
H      1.050614    0.490570   -2.303362
H     -0.481072   -0.415046   -2.028120
H      0.816493    0.037420    2.706271
H      4.016653   -2.302591   -0.167106
H      2.919288   -2.398048   -1.566804
H      4.891601   -1.100556   -2.196326
H      3.479657   -0.002308   -2.175206
H      4.717034    2.050086    0.550099
H      3.569037   -2.319378    2.239475
H      4.195762   -0.623466    2.118175
H      2.979387   -1.054336    3.378468
H     -0.938713    1.635830    0.980085
H     -3.053389    2.762328    0.771312
H     -5.451010    3.394242    0.537082
H     -7.131429    1.700648   -0.159700
H     -6.426468   -0.648099   -0.630214
H     -4.257222   -2.397961   -0.686123
