42

C     -4.674035    0.225041    0.679645
N     -3.450962   -0.602308    0.701342
C     -2.436667   -0.084842    1.630879
C     -1.748828    1.080192    0.897050
C     -1.951165    0.758207   -0.583890
C     -2.725159   -0.571076   -0.576180
C     -1.743357   -1.773916   -0.605089
C     -0.778418   -1.797578    0.615648
C     -1.418914   -1.220194    1.916412
O      0.412972   -1.081432    0.281404
C      1.611369   -1.189491    0.996118
O      1.694453   -1.961993    1.989878
C      2.780984   -0.387145    0.603224
C      3.939964   -0.210867    1.355261
N      4.803003    0.606697    0.712292
C      4.204658    0.945909   -0.441966
C      4.717623    1.768913   -1.443723
C      3.930075    1.981271   -2.588779
C      2.664943    1.367134   -2.709653
C      2.172453    0.539663   -1.684483
C      2.968276    0.357196   -0.550354
H     -4.462326    1.285390    0.425898
H     -5.170509    0.195808    1.673951
H     -5.392800   -0.177510   -0.066879
H     -3.744495   -1.577670    0.953843
H     -2.888198    0.255466    2.590452
H     -2.251791    2.038602    1.151245
H     -0.671452    1.173933    1.155409
H     -0.986648    0.689419   -1.128194
H     -2.563947    1.550682   -1.066189
H     -3.415585   -0.638176   -1.447486
H     -2.339663   -2.712689   -0.608930
H     -1.160782   -1.764423   -1.552326
H     -0.501270   -2.859949    0.799566
H     -0.636247   -0.850407    2.612380
H     -1.948459   -2.041483    2.447009
H      4.136946   -0.649568    2.324994
H      5.744563    0.909191    1.047681
H      5.692855    2.228103   -1.346044
H      4.299310    2.613984   -3.385343
H      2.072013    1.528883   -3.600451
H      1.215215    0.053034   -1.793805
