25

C      4.501457    0.700193   -0.510778
C      3.114548    0.084082   -0.668730
C      2.587723   -0.442813    0.669403
C      1.226472   -1.049015    0.497202
O      1.124882   -2.289240    0.290647
C      0.025920   -0.189943    0.525073
C     -1.208039   -0.679054    0.364370
C     -2.384742    0.211942    0.394661
C     -3.635685   -0.252528    0.255694
C     -4.804697    0.658697    0.279099
O     -5.938712    0.197095    0.572331
O     -4.697719    2.013176   -0.037342
O     -3.848036   -1.624960    0.107593
H      4.856847    1.072817   -1.494553
H      5.221030   -0.059474   -0.137672
H      4.466049    1.552940    0.200332
H      3.172045   -0.749237   -1.402979
H      2.421300    0.857099   -1.067102
H      2.534617    0.386489    1.408425
H      3.284799   -1.211268    1.070237
H      0.163082    0.874295    0.680067
H     -1.347761   -1.742096    0.207738
H     -2.214310    1.267691    0.562504
H     -3.844847    2.426488   -0.391377
H     -4.776223   -2.013377   -0.009197
