46

C     -7.246359    0.813507    2.141214
C     -7.887783    0.604860    0.771193
C     -7.157136   -0.444842   -0.083004
C     -5.741386   -0.010054   -0.517443
C     -4.643928   -0.673661    0.333317
C     -3.248036   -0.091757    0.060707
C     -2.714173   -0.462907   -1.331193
C     -1.310735    0.035207   -1.523899
C     -0.275026   -0.532109   -0.899867
C      1.097344   -0.042914   -1.109530
C      2.131466   -0.610341   -0.485288
C      3.504294   -0.120964   -0.694362
C      4.538387   -0.688087   -0.069707
C      5.911297   -0.198880   -0.278950
C      6.945486   -0.765588    0.346340
C      8.319417   -0.276730    0.137872
C      9.352163   -0.856933    0.758131
C     10.754849   -0.425801    0.590007
O     11.671656   -1.179148    1.009642
O     11.105480    0.791583    0.005552
H     -7.128856   -0.157273    2.668016
H     -7.895069    1.472669    2.755701
H     -6.257075    1.305683    2.036411
H     -8.934709    0.264022    0.924449
H     -7.928419    1.574666    0.229196
H     -7.133602   -1.420281    0.451463
H     -7.767216   -0.604691   -0.999074
H     -5.596933   -0.314556   -1.576246
H     -5.642795    1.097024   -0.478362
H     -4.868165   -0.526957    1.410297
H     -4.636252   -1.769782    0.145184
H     -2.556946   -0.491627    0.834571
H     -3.272547    1.014571    0.173170
H     -2.740425   -1.565306   -1.475355
H     -3.353864    0.002436   -2.110126
H     -1.145543    0.856210   -2.212394
H     -0.445562   -1.367591   -0.229702
H      1.265484    0.791828   -1.781674
H      1.962813   -1.444766    0.187198
H      3.672911    0.713278   -1.367056
H      4.369704   -1.522224    0.603089
H      6.079763    0.634801   -0.952313
H      6.775573   -1.598862    1.019911
H      8.474633    0.547623   -0.544422
H      9.169496   -1.712089    1.399432
H     10.426322    1.487024   -0.272099
