31

C     -0.775101    0.427899    0.287357
C     -2.098675    0.918924   -0.327421
C     -3.018614   -0.189442   -0.879722
C     -3.435602   -1.247727    0.153346
C     -4.200286   -0.646999    1.292478
O     -3.637766   -0.453324    2.402172
O     -5.525876   -0.270359    1.117831
C      0.127553   -0.290509   -0.730113
C      1.473499   -0.727358   -0.124253
C      2.449116    0.443765    0.128162
C      3.777873   -0.072050    0.711255
C      4.702008    1.061631    1.032046
O      4.607757    1.663112    2.134232
O      5.637121    1.483591    0.095457
O      2.675970    1.173984   -1.053227
H     -0.975182   -0.234065    1.155765
H     -0.248210    1.322969    0.677636
H     -1.868063    1.626821   -1.153217
H     -2.651850    1.499562    0.442030
H     -3.935472    0.290517   -1.286954
H     -2.526166   -0.693931   -1.737273
H     -2.548159   -1.799288    0.529208
H     -4.087117   -1.994295   -0.349140
H      0.296973    0.358335   -1.616349
H     -0.386694   -1.209789   -1.081101
H      1.950890   -1.447047   -0.825398
H      1.287861   -1.272467    0.827457
H      1.998443    1.128055    0.877596
H      3.580459   -0.649542    1.640940
H      4.273998   -0.754877   -0.012384
H      3.079310    0.553902   -1.715984
