22

C     -1.962222   -1.937653    0.472255
C     -0.733967   -1.270487    0.451451
C     -0.684686    0.126478    0.285542
C     -1.892009    0.839391    0.160603
C     -3.122396    0.166801    0.180900
C     -3.152989   -1.221778    0.334465
O     -4.318126    0.869455    0.049279
C      0.609066    0.851562    0.268131
O      0.637617    2.072065    0.587431
N      1.825253    0.194541   -0.122286
C      3.120517    0.861137    0.005948
C      4.225800   -0.039654   -0.446851
O      4.758367   -0.844139    0.362064
O      4.631154   -0.029122   -1.775331
H     -1.990967   -3.011849    0.602411
H      0.169140   -1.849206    0.590793
H     -1.880593    1.915395    0.036301
H     -4.100423   -1.745336    0.352295
H     -4.331334    1.876415   -0.063574
H      1.778982   -0.754376   -0.557712
H      3.125647    1.785568   -0.610534
H      3.288170    1.144792    1.067603
