14

C     -1.539625   -0.278255   -0.244026
C     -0.078432    0.171480   -0.335305
C      0.848792   -0.843497    0.354500
O      2.191371   -0.457566    0.226475
C      0.080508    1.538228    0.272515
O      0.472081    2.503122   -0.435543
O     -0.203142    1.746694    1.617397
H     -2.198026    0.455936   -0.756202
H     -1.667658   -1.263304   -0.741557
H     -1.859755   -0.369580    0.816449
H      0.195051    0.218705   -1.413385
H      0.600625   -0.912512    1.435746
H      0.703088   -1.856352   -0.086538
H      2.455120   -0.653098   -0.710527
