48

C     -1.504024   -0.602491    2.491350
C     -1.251502   -0.902180    1.017220
C     -2.060747   -2.086493    0.555639
C     -3.345159   -2.030847    0.155533
C     -4.163628   -0.760211    0.033600
C     -4.350998   -0.265756   -1.412943
C     -3.209989   -0.214313   -2.183694
C     -2.048853    0.329127   -2.521232
C     -1.238344   -0.263217   -3.600713
C      0.020627    0.104060   -3.881741
C      0.798300    1.143069   -3.117381
C      1.235111    0.607895   -1.747030
C      1.996821    1.672627   -0.939841
C      2.033259    1.359774    0.565193
C      2.882134    0.120916    0.897457
C      2.761564   -0.300529    2.370416
C      3.354449    0.732245    3.337750
C      3.365693    0.197534    4.736157
O      2.286372    0.057646    5.371228
O      4.568449   -0.155729    5.336118
O     -4.281216   -1.253613   -2.357078
H     -1.174356   -1.460982    3.116282
H     -0.924842    0.297705    2.790186
H     -2.582321   -0.408766    2.678595
H     -0.173577   -1.142951    0.890055
H     -1.464103   -0.005719    0.399268
H     -1.564928   -3.055265    0.544186
H     -3.815805   -2.955416   -0.169203
H     -5.171877   -0.971935    0.448481
H     -3.748453    0.067011    0.644030
H     -5.101224    0.521269   -1.638467
H     -1.711866    1.198559   -1.973761
H     -1.681882   -1.048195   -4.202755
H      0.516867   -0.377866   -4.715506
H      1.706078    1.406236   -3.702562
H      0.191855    2.067978   -3.010921
H      1.887669   -0.278979   -1.899686
H      0.343603    0.280888   -1.176997
H      1.494446    2.656889   -1.062396
H      3.032131    1.772480   -1.332614
H      2.465410    2.242672    1.081748
H      0.995226    1.227246    0.940149
H      2.544332   -0.739025    0.282167
H      3.946968    0.316841    0.647307
H      1.693783   -0.481068    2.621315
H      3.303518   -1.264544    2.494292
H      2.751355    1.664187    3.323361
H      4.393671    0.981237    3.033272
