44

C      0.576024   -1.074647    1.250474
N      1.651995   -0.837594    0.433278
C      1.674118    0.223548   -0.430146
C      0.560686    1.059295   -0.443856
C     -0.487128    0.807426    0.374319
N     -0.511321   -0.246818    1.223603
N     -1.437853    1.733188    0.186717
C     -0.921935    2.529439   -0.785165
N      0.318695    2.148091   -1.197155
C     -2.782466    1.809433    0.764865
C     -3.762167    0.946051   -0.041461
C     -4.005649   -0.223028    0.877449
C     -3.758073    0.387267    2.250654
O     -2.755886    1.367949    2.108931
C     -3.319150   -0.656521    3.287715
O     -4.357167   -1.561875    3.555268
O     -5.314132   -0.716523    0.753989
O     -4.955578    1.654268   -0.270990
N      2.799793    0.463036   -1.288014
C      3.989625   -0.392185   -1.274279
C      3.747524   -1.642515   -2.137719
C      4.873600   -2.627497   -2.006038
O      4.889211   -3.436631   -1.042432
O      5.937847   -2.612513   -2.901743
C      5.186707    0.383897   -1.756216
O      5.194448    0.893967   -2.909507
O      6.292272    0.535743   -0.925303
H      0.587612   -1.923419    1.920023
H     -1.448257    3.377568   -1.204120
H     -3.112078    2.874724    0.757711
H     -3.331439    0.593010   -1.009003
H     -3.252573   -1.016376    0.652169
H     -4.684657    0.887831    2.614638
H     -3.007864   -0.145883    4.226940
H     -2.440612   -1.221392    2.913268
H     -5.007824   -1.084249    4.132274
H     -5.289920   -1.664858    1.046035
H     -4.775964    2.267274   -1.028239
H      2.735957    1.235985   -1.989934
H      4.191947   -0.710594   -0.227565
H      3.619944   -1.356499   -3.204470
H      2.805827   -2.138120   -1.816130
H      5.976472   -1.941467   -3.658886
H      7.109388    1.052215   -1.232278
