41

C     -4.021678    1.828625   -0.280249
C     -2.991098    0.743437   -0.238936
C     -1.696103    0.829106    0.266139
C     -1.014061    2.063508    0.786802
C      0.192655    1.687484    1.668103
C      1.110609    0.621904    1.021083
C      0.286984   -0.572561    0.604110
O      0.799220   -1.723330    0.614274
N     -1.068483   -0.366081    0.177132
C     -1.965647   -1.229880   -0.349544
C     -1.810595   -2.592666   -0.632149
C     -2.907080   -3.284113   -1.177285
C     -4.123444   -2.615860   -1.429160
C     -4.256274   -1.246894   -1.142625
C     -3.153669   -0.580924   -0.606023
C      1.884953    1.203041   -0.180236
C      2.931447    0.249314   -0.682780
C      4.184541    0.028487   -0.144278
N      4.771492   -0.959031   -0.838196
C      3.877640   -1.310047   -1.782375
N      2.733403   -0.595845   -1.715036
C      4.781023    0.678290    1.063983
H     -4.705696    1.677396   -1.140838
H     -4.608547    1.816580    0.661381
H     -3.533967    2.818919   -0.395205
H     -0.678894    2.682415   -0.071960
H     -1.729039    2.662961    1.389858
H      0.776827    2.603223    1.904572
H     -0.187666    1.287268    2.634270
H      1.840884    0.300514    1.796237
H     -0.886205   -3.118500   -0.446807
H     -2.817137   -4.338341   -1.404973
H     -4.959716   -3.160782   -1.847402
H     -5.187736   -0.731154   -1.335565
H      1.184933    1.438038   -1.011173
H      2.378526    2.154048    0.112970
H      5.712953   -1.380075   -0.674735
H      4.050775   -2.092218   -2.509542
H      4.343980    0.231472    1.980596
H      4.579746    1.769315    1.052583
H      5.880144    0.522955    1.076040
