32

C      4.259878    1.722281    0.598077
C      2.838124    1.308800    0.230606
C      2.363002    0.136823    1.094445
C      0.965034   -0.259286    0.723087
C      0.574331   -1.060603   -0.341007
C     -0.813473   -1.113719   -0.289309
C     -1.170896   -0.335324    0.810578
O     -0.093240    0.157168    1.377676
C     -2.552556   -0.029321    1.309650
C     -3.168022    1.126713    0.518206
C     -4.551645    1.416474    1.006470
O     -4.734721    2.242771    1.938755
O     -5.635919    0.737074    0.465753
C     -1.709485   -1.836035   -1.221420
O     -2.959987   -1.772831   -1.087073
O     -1.178462   -2.594426   -2.259904
C      1.465961   -1.717360   -1.354062
H      4.576397    2.573325   -0.041049
H      4.306819    2.039908    1.661555
H      4.961346    0.876220    0.436076
H      2.160487    2.178580    0.376073
H      2.814155    1.022214   -0.843257
H      2.376680    0.436426    2.164866
H      3.044985   -0.732575    0.979721
H     -3.192114   -0.934850    1.248243
H     -2.486952    0.255429    2.382500
H     -2.537891    2.036530    0.629811
H     -3.212727    0.870645   -0.562058
H     -1.782407   -3.091857   -2.903331
H      1.334706   -2.818337   -1.307458
H      2.533839   -1.485796   -1.169522
H      1.204753   -1.355057   -2.370008
