21

C      1.915342   -0.913217    0.363110
C      1.119113   -0.184195   -0.724863
C     -0.169956    0.549066   -0.234794
C      0.196444    1.680835    0.753781
C     -1.175526   -0.429674    0.453520
C     -1.564140   -1.587286   -0.432331
O     -2.245787   -1.396339   -1.474240
O     -1.160266   -2.876142   -0.106848
O     -2.329322    0.244344    0.897146
O     -0.808603    1.119797   -1.355378
H      2.227863   -0.216546    1.167040
H      2.833646   -1.344828   -0.087929
H      1.330293   -1.749693    0.795618
H      1.798247    0.554247   -1.205009
H      0.850697   -0.919439   -1.514022
H      1.001019    2.322898    0.335504
H     -0.687759    2.325655    0.945284
H      0.538521    1.272157    1.727696
H     -0.694278   -0.851077    1.361188
H     -2.789587    0.624903    0.104258
H     -0.185963    1.774533   -1.768730
