19

C      0.896876    0.992540   -0.285242
C     -0.612202    0.822640   -0.577613
C     -1.171330   -0.585964   -0.229202
C     -1.278056   -0.838740    1.255712
O     -0.277333   -1.003726    1.934135
O     -2.425768   -0.772212   -0.836536
O     -1.357022    1.833055    0.058922
C      1.747050    0.132270   -1.183429
O      1.856116    0.440087   -2.400675
C      2.441933   -1.065855   -0.683932
O      2.363085   -1.399042    0.527634
O      3.196327   -1.841510   -1.555451
H      1.116116    0.794525    0.783991
H      1.174339    2.053353   -0.468769
H     -0.749416    0.967444   -1.672307
H     -0.494668   -1.357209   -0.654316
H     -2.252828   -0.903017    1.728969
H     -3.045069   -0.086975   -0.470869
H     -1.128150    1.818334    1.024722
