46

C     -6.166820   -2.203929   -0.074568
O     -5.341585   -1.043638   -0.108402
C     -3.938320   -1.050644   -0.068518
C     -3.218943    0.173516   -0.101470
C     -1.805519    0.151078   -0.076204
C     -1.117441   -1.074269    0.037830
C      0.389773   -1.130820    0.068380
C      1.017990    0.238059    0.395855
C      2.535587    0.197363    0.212307
C      3.302169   -0.814863    0.843102
C      4.682130   -0.801054    0.676489
C      5.310015    0.156955   -0.045040
C      4.615041    1.195704   -0.650652
C      3.212264    1.236419   -0.497436
C      2.444949    2.370476   -1.113377
C      1.093765    2.536223   -0.430291
N      0.373824    1.252857   -0.472277
C     -1.032513    1.452108   -0.070973
O      6.671523   -0.078563   -0.039928
C      6.913339   -1.257694    0.739766
O      5.616579   -1.686307    1.178230
C     -1.837210   -2.271705    0.056498
C     -3.227552   -2.262648    0.004941
O     -3.843583    1.436433   -0.155265
C     -5.242837    1.696686   -0.175995
H     -5.998715   -2.764806    0.868842
H     -7.230532   -1.892281   -0.116477
H     -5.952334   -2.851386   -0.950950
H      0.696672   -1.878470    0.830040
H      0.746473   -1.475345   -0.927226
H      0.822549    0.474698    1.468100
H      2.847717   -1.583668    1.451923
H      5.145465    1.958448   -1.206686
H      3.016408    3.319422   -1.016849
H      2.292758    2.158360   -2.193675
H      0.527637    3.320310   -0.980916
H      1.233812    2.880686    0.620462
H     -1.092551    1.899434    0.947171
H     -1.511870    2.154123   -0.788717
H      7.552270   -1.014346    1.614232
H      7.384552   -2.042622    0.111562
H     -1.317178   -3.220443    0.114410
H     -3.743068   -3.212742    0.027055
H     -5.401846    2.793801   -0.210900
H     -5.720343    1.307457    0.747459
H     -5.704501    1.251626   -1.082348
