41

C      4.676567    2.030454   -0.100266
C      4.201131    0.597577   -0.342090
C      5.395050   -0.307208   -0.691183
N      3.489386    0.120740    0.859999
C      2.477065   -0.903457    0.556367
C      1.121963   -0.244445    0.261037
C      0.066745   -1.314206   -0.065073
O     -1.173493   -0.714083   -0.443113
C     -2.187364   -0.271819    0.427207
C     -2.137199   -0.491643    1.819701
C     -3.173869   -0.048329    2.643951
C     -4.272573    0.611884    2.095424
C     -4.337961    0.835760    0.719775
C     -3.297905    0.405844   -0.121674
C     -3.398380    0.640120   -1.609030
C     -3.805628   -0.618725   -2.322391
C     -5.040307   -1.118253   -2.215146
O      0.726645    0.507841    1.379204
H      5.185468    2.426658   -1.004999
H      3.805720    2.682426    0.124926
H      5.381648    2.067974    0.757891
H      3.516031    0.624593   -1.219236
H      6.136718   -0.317032    0.136136
H      5.055432   -1.346974   -0.876851
H      5.894861    0.060565   -1.612617
H      4.175330   -0.268623    1.549489
H      2.789132   -1.544100   -0.298350
H      2.359689   -1.572847    1.438496
H      1.236609    0.415807   -0.630759
H      0.426501   -1.904719   -0.934664
H     -0.067282   -2.033031    0.769941
H     -1.306094   -1.002334    2.282262
H     -3.126502   -0.220800    3.711534
H     -5.076322    0.949155    2.737137
H     -5.201732    1.344344    0.309627
H     -4.123675    1.451051   -1.839936
H     -2.412643    0.975615   -1.997137
H     -3.079789   -1.128260   -2.949313
H     -5.306432   -2.026526   -2.745841
H     -5.789959   -0.627843   -1.601600
H      0.197417    1.276849    1.041165
