15

C     -0.158664   -1.113480   -0.145275
C      1.263010   -0.901627    0.400953
C      1.516030    0.529389    0.144075
O      2.605492    1.107663    0.396324
N      0.405243    1.201118   -0.404824
C     -0.700614    0.275788   -0.567103
C     -1.861748    0.703478    0.283172
O     -1.691609    0.993870    1.497279
O     -3.139046    0.749667   -0.260617
H     -0.118144   -1.780874   -1.034091
H     -0.798475   -1.604047    0.621841
H      2.001564   -1.531942   -0.139388
H      1.302807   -1.102918    1.492951
H      0.380990    2.216406   -0.649281
H     -1.006837    0.257507   -1.636016
