22

C      3.287784   -0.335354   -0.908615
C      1.911989    0.293933   -1.107744
C      0.910383   -0.223508   -0.068888
C     -0.472808    0.410954   -0.274428
C     -1.486302   -0.067935    0.781188
C     -2.783575    0.693000    0.646293
O     -3.479050    0.576963   -0.397834
O     -3.221481    1.537583    1.663018
N     -1.716877   -1.510157    0.660037
H      3.683780   -0.086492    0.099024
H      3.226561   -1.439283   -1.016682
H      3.990495    0.057721   -1.673244
H      1.550251    0.050968   -2.130716
H      2.006236    1.398405   -1.020590
H      1.280128    0.021519    0.951245
H      0.829627   -1.328899   -0.159584
H     -0.373313    1.517196   -0.203351
H     -0.846549    0.163605   -1.292971
H     -1.059349    0.133422    1.788591
H     -2.687043    1.662135    2.514301
H     -2.169280   -1.718219   -0.260383
H     -2.381606   -1.807555    1.411333
