13

C     -0.793482    0.627228   -0.307991
C      0.535471    0.565556    0.459361
N      1.421178   -0.472228   -0.071825
C     -1.615899   -0.611412   -0.107054
O     -2.052473   -0.892512    0.997810
H     -0.592934    0.765102   -1.392316
H     -1.377441    1.505179    0.042705
H      0.343318    0.380115    1.539696
H      1.039788    1.553393    0.373217
H      1.602678   -0.306108   -1.088382
H      0.995222   -1.417557    0.062776
H      2.330909   -0.439234    0.442474
H     -1.836336   -1.257522   -0.950470
