37

C      5.472150   -0.660290   -0.027499
C      4.101830    0.007567   -0.090913
C      3.093589   -0.869575   -0.837780
C      1.756422   -0.202532   -0.879643
O      1.417040    0.459384   -1.898383
O      0.919201   -0.277934    0.239570
C     -0.370732    0.338733    0.312942
C     -0.719798    0.554412    1.797355
C      0.440009    1.126606    2.556255
O      1.166138    0.379635    3.263634
O      0.744155    2.477607    2.446066
C     -1.389304   -0.574901   -0.439811
N     -2.776914   -0.047232   -0.680730
C     -3.351252   -0.782412   -1.837556
C     -2.788543    1.397762   -1.010836
C     -3.662157   -0.302473    0.483064
H      5.403741   -1.631091    0.508204
H      5.864990   -0.833133   -1.052144
H      6.181120   -0.002765    0.518382
H      3.743336    0.192207    0.945840
H      4.201895    0.986939   -0.608361
H      3.449564   -1.058156   -1.874479
H      2.990317   -1.848645   -0.321737
H     -0.302367    1.336667   -0.171461
H     -1.031656   -0.405224    2.264739
H     -1.545134    1.285733    1.890575
H     -1.433462   -1.557931    0.082126
H     -0.910019   -0.801983   -1.419320
H     -4.404524   -0.478548   -2.034717
H     -3.343240   -1.881216   -1.656020
H     -2.772541   -0.584906   -2.768292
H     -3.801935    1.728092   -1.332819
H     -2.519501    2.020238   -0.131642
H     -2.077437    1.620966   -1.837347
H     -3.377922    0.292207    1.367816
H     -4.715993   -0.026255    0.252608
H     -3.651067   -1.377553    0.770353
