42

C      3.997865    4.837993    2.432857
O      3.852924    4.467440    1.065821
C      2.900807    3.553786    0.587419
C      2.838297    3.312102   -0.791890
C      1.901477    2.405200   -1.307968
C      1.011581    1.730304   -0.452295
C      1.082192    1.973894    0.927581
C      2.014078    2.876945    1.444810
C      0.025411    0.756590   -0.979398
C     -0.572027    0.932115   -2.229372
C     -1.484070   -0.012641   -2.689505
O     -2.069411    0.212389   -3.780846
C     -1.758945   -1.164744   -1.912692
C     -2.610926   -2.216935   -2.338470
C     -2.935124   -3.251765   -1.457994
C     -2.377310   -3.316588   -0.171706
C     -1.464233   -2.317882    0.249407
C     -1.161668   -1.240644   -0.624536
O     -0.309102   -0.293808   -0.237310
O     -0.885993   -2.441253    1.527316
C     -0.081148   -1.484735    2.207323
O     -2.768302   -4.406219    0.633509
C     -2.381190   -4.667294    1.978488
O     -3.819308   -4.241084   -1.897265
O     -3.137763   -2.306010   -3.631694
O      3.714804    3.978885   -1.647231
H      4.247435    3.947357    3.046653
H      3.061795    5.307363    2.800593
H      4.823250    5.572964    2.523706
H      1.888465    2.215600   -2.373826
H      0.402655    1.480059    1.607684
H      2.035046    3.042727    2.513367
H     -0.365168    1.811872   -2.826796
H      0.153966   -1.871362    3.220050
H      0.877910   -1.331096    1.669379
H     -0.640023   -0.533386    2.323047
H     -1.287373   -4.848988    2.037715
H     -2.684953   -3.826233    2.637108
H     -2.899848   -5.583385    2.327760
H     -4.099662   -5.022956   -1.318105
H     -2.736908   -1.860613   -4.444105
H      3.700500    3.824033   -2.648591
