38

C      0.851726    4.696705    0.584626
O      1.221226    3.323898    0.501804
C      0.314353    2.252803    0.423576
C      0.804523    0.910518    0.342272
C     -0.119531   -0.162160    0.260616
C     -1.484317    0.119012    0.255633
C     -2.639491   -0.823811    0.179701
C     -2.766865   -1.511048   -1.156651
C     -4.199895   -1.223815   -1.555311
O     -4.601993   -0.015087   -0.957799
C     -3.856418    0.118261    0.229794
O     -3.322153    1.439640    0.320079
C     -1.944137    1.396810    0.334466
C     -1.082814    2.483706    0.419064
O      0.295588   -1.417743    0.199089
C      1.577906   -1.753471    0.185540
C      1.909786   -3.110098    0.149046
C      3.242577   -3.508584    0.153481
C      4.256005   -2.553535    0.156537
C      3.956828   -1.185510    0.150824
C      2.594144   -0.760966    0.216545
C      2.182052    0.590391    0.347280
O      3.031378    1.506065    0.506099
O      5.042591   -0.311064    0.047001
H      0.273479    4.991731   -0.316333
H      1.770338    5.316315    0.634881
H      0.251890    4.876228    1.501746
H     -2.641024   -1.542732    1.028582
H     -2.583885   -2.604000   -1.069743
H     -2.075320   -1.078613   -1.914845
H     -4.286176   -1.142862   -2.659709
H     -4.866731   -2.043391   -1.206464
H     -4.498085   -0.094553    1.112355
H     -1.498332    3.479898    0.478904
H      1.128266   -3.859673    0.131883
H      3.491991   -4.561775    0.138103
H      5.288532   -2.878826    0.128000
H      4.981987    0.641336   -0.280673
