42

C      1.676636   -2.058027    1.557355
C      1.445685   -1.344912    0.207024
C      2.762782   -0.682612   -0.269389
C      2.515630    0.454635   -1.256823
C      1.689799    1.599872   -0.638097
C      0.609261    1.148937    0.417027
C      0.211509   -0.364974    0.161648
C     -0.918601   -0.774016    1.124636
C     -2.078425   -0.136279    0.425674
C     -2.004978    1.390523    0.716874
C     -0.669124    2.057037    0.277546
C     -1.755456   -0.523253   -1.034069
O     -0.347103   -0.433174   -1.156412
C     -2.459748    0.367341   -2.082758
C     -2.182613   -1.982589   -1.338283
C      1.193519    1.400498    1.839899
H      0.902005   -2.833163    1.729786
H      1.662624   -1.350824    2.408599
H      2.655152   -2.584720    1.553584
H      1.227983   -2.162261   -0.518223
H      3.397034   -1.451396   -0.763158
H      3.356953   -0.292540    0.583489
H      1.992613    0.051339   -2.151560
H      3.492214    0.854995   -1.606105
H      2.392854    2.336284   -0.189775
H      1.226701    2.136750   -1.492948
H     -0.804920   -0.438280    2.172724
H     -1.061796   -1.872132    1.171769
H     -3.049816   -0.550515    0.775580
H     -2.136766    1.549073    1.809954
H     -2.857639    1.907742    0.227186
H     -0.785805    2.403849   -0.763714
H     -0.544635    3.002542    0.850219
H     -3.559972    0.339781   -1.929124
H     -2.137033    1.419340   -2.057199
H     -2.239696    0.004592   -3.109773
H     -3.263688   -2.126236   -1.124894
H     -1.602864   -2.723943   -0.753832
H     -2.001613   -2.227069   -2.407166
H      2.102581    0.808437    2.038478
H      0.459208    1.212924    2.645860
H      1.489547    2.466426    1.948391
