34

C     -2.440245   -1.501205   -1.789267
C     -2.230194   -0.035013   -1.392250
C     -1.210985    0.213363   -0.240507
C     -1.698339   -0.489645    1.025266
O     -1.448158   -1.713329    1.202614
N     -2.493127    0.194598    1.997244
C     -2.615178    1.613214    1.974795
O     -3.322226    2.199267    2.836720
N     -1.914853    2.370042    0.992138
C     -1.158445    1.725787   -0.037304
O     -0.510155    2.441854   -0.849095
C      0.208242   -0.308688   -0.636539
C      1.306334    0.034389    0.396224
C      2.643409   -0.685932    0.109051
C      3.610201   -0.486952    1.283737
C      3.294526   -0.190227   -1.191153
H     -1.506465   -1.947161   -2.187394
H     -2.811489   -2.100277   -0.933423
H     -3.204872   -1.552196   -2.592903
H     -3.220127    0.382156   -1.099928
H     -1.904426    0.516863   -2.302153
H     -2.938684   -0.346894    2.772020
H     -1.946030    3.413876    1.030619
H      0.488600    0.122546   -1.621565
H      0.183344   -1.412018   -0.761413
H      0.954999   -0.267877    1.406261
H      1.477609    1.132365    0.418798
H      2.453079   -1.777950    0.012514
H      4.560347   -1.031854    1.097487
H      3.165865   -0.887161    2.220042
H      3.836694    0.591781    1.426206
H      4.290156   -0.663957   -1.327632
H      3.424734    0.913090   -1.169785
H      2.675861   -0.466853   -2.069426
