24

C      2.085101    1.416231    0.990104
C      2.268813   -0.071898    0.953342
O      2.511967   -0.668074    1.991540
C      2.156943   -0.842993   -0.337129
C      0.894564   -1.713758   -0.368457
C     -0.357331   -0.873387   -0.379188
C     -0.817020   -0.305615   -1.578619
C     -1.955217    0.506384   -1.583630
C     -2.640051    0.765700   -0.392038
C     -2.180553    0.209041    0.809247
C     -1.043212   -0.603960    0.816702
O     -3.771802    1.577588   -0.411664
H      1.250902    1.668624    1.677850
H      1.844609    1.818774   -0.016070
H      3.016492    1.897196    1.355179
H      3.050777   -1.495155   -0.440702
H      2.153811   -0.154233   -1.209697
H      0.891678   -2.408199    0.500580
H      0.918456   -2.346607   -1.282286
H     -0.291449   -0.489122   -2.507617
H     -2.303139    0.937724   -2.513632
H     -2.701233    0.408652    1.737121
H     -0.693888   -1.017936    1.754480
H     -4.289218    1.785026    0.434583
