23

C      0.809916    1.307762   -0.127477
C      2.139115    1.110955   -0.510312
C      2.720623   -0.161051   -0.417527
C      1.959644   -1.241749    0.060626
C      0.628588   -1.040319    0.443778
C      0.047969    0.235543    0.361404
C     -1.394564    0.443109    0.744626
C     -2.316289    0.344958   -0.484965
C     -3.740554    0.640899   -0.105164
O     -4.306924    1.680893   -0.533412
O     -4.435814   -0.221158    0.734553
O     -2.227847   -0.919825   -1.093475
O      2.507065   -2.520431    0.160142
O      4.047119   -0.354648   -0.799738
H      0.373483    2.295316   -0.213070
H      2.716321    1.947971   -0.882141
H      0.047118   -1.880250    0.804248
H     -1.697139   -0.305512    1.510184
H     -1.508051    1.446138    1.212765
H     -1.987195    1.103534   -1.229509
H     -2.462837   -1.602601   -0.411368
H      3.464536   -2.717929   -0.104972
H      4.615717    0.408392   -1.148109
