35

C      5.295803   -1.392689   -0.022762
O      4.863676   -0.035991   -0.020131
C      3.536099    0.373786    0.179389
C      3.237267    1.760745    0.155571
C      1.917539    2.204289    0.348939
C      0.922692    1.257101    0.567956
C      1.196858   -0.080242    0.593830
C      2.492893   -0.557999    0.398369
C     -0.068782   -0.852454    0.771848
C     -0.409570   -1.607946   -0.525888
O     -1.795355   -1.921865   -0.580424
C     -2.757779   -0.943761   -0.335270
C     -2.426900    0.192944    0.421865
C     -1.086752    0.287691    1.110751
O     -0.416274    1.505362    0.784126
C     -3.397603    1.183288    0.637608
C     -4.681530    1.040041    0.102917
C     -5.012726   -0.103781   -0.636327
C     -4.050281   -1.096444   -0.847953
O     -6.292262   -0.262832   -1.163525
O      4.238430    2.707339   -0.059543
H      4.787326   -1.953745   -0.835101
H      6.390197   -1.424098   -0.200625
H      5.081507   -1.863605    0.959857
H      1.677699    3.259614    0.332790
H      2.673327   -1.624119    0.409167
H      0.019165   -1.564634    1.621547
H     -0.158542   -0.987684   -1.415605
H      0.180970   -2.546706   -0.582722
H     -1.263471    0.276577    2.209385
H     -3.164625    2.056344    1.234670
H     -5.421928    1.810581    0.276154
H     -4.301427   -1.978307   -1.423855
H     -7.011556    0.437975   -1.027983
H      5.205914    2.445224   -0.204870
