16

C     -1.521046   -0.404840    1.289133
C     -1.094996    0.271476    0.216110
C      0.381921    0.534708    0.039457
C      1.041087   -0.596000   -0.754883
C      2.502791   -0.330902   -0.930114
O      2.913306    0.323505   -1.924445
O      3.408014   -0.763872    0.030467
C     -2.054421    0.703365   -0.826344
O     -1.644593    1.286171   -1.865003
O     -3.417554    0.471868   -0.677173
H     -0.822543   -0.749490    2.041719
H     -2.569315   -0.631136    1.436561
H      0.876639    0.631989    1.032046
H      0.530334    1.501363   -0.489932
H      0.909737   -1.560043   -0.216968
H      0.560640   -0.688163   -1.753655
