32

C      3.618841   -1.635124   -1.384436
N      4.517596   -0.875127   -0.678999
C      4.108804    0.170248    0.100966
C      2.746047    0.440231    0.153009
C      1.880073   -0.320554   -0.554276
N      2.280480   -1.361761   -1.323667
N      0.629702    0.108808   -0.343956
C      0.785359    1.141779    0.525985
N      2.085383    1.381052    0.853829
C     -0.620154   -0.472209   -0.845607
C     -1.251688   -1.428449    0.171157
C     -2.351769   -0.598124    0.772212
C     -2.699391    0.343593   -0.375301
O     -1.534902    0.564300   -1.140628
C     -3.256651    1.680867    0.129304
O     -3.570275    2.518139   -0.950541
O     -3.444091   -1.404555    1.127611
O     -0.334852   -1.856566    1.145940
N      5.057977    0.944517    0.834238
H      3.971416   -2.457554   -1.991372
H     -0.038589    1.712600    0.932293
H     -0.409999   -1.027861   -1.786295
H     -1.676410   -2.305642   -0.373713
H     -1.962739   -0.037690    1.656344
H     -3.460787   -0.137061   -1.031443
H     -2.497823    2.190577    0.759983
H     -4.161236    1.509788    0.756313
H     -4.418725    2.177205   -1.337463
H     -4.038143   -0.841497    1.688696
H     -0.781405   -2.585036    1.651169
H      6.075467    0.717415    0.777888
H      4.752483    1.743690    1.433011
