31

C     -4.902967    0.280978   -0.250996
C     -3.917757   -0.219530    0.602609
C     -2.566941   -0.100830    0.261787
C     -2.186981    0.517468   -0.945809
C     -3.190025    1.026962   -1.792060
C     -4.539343    0.905071   -1.446033
C     -0.755521    0.658867   -1.317216
O     -0.420890    1.509979   -2.186011
C      0.295616   -0.196487   -0.719836
C      0.142776   -1.589490   -0.790737
C      1.134460   -2.436756   -0.306112
C      2.292410   -1.908046    0.257246
C      2.471518   -0.518235    0.360256
C      1.468244    0.354393   -0.141789
N      1.617181    1.781283   -0.035555
C      3.746550   -0.006646    0.991165
C      4.747572    0.358570   -0.060103
O      5.244758   -0.532997   -0.797615
O      5.137123    1.681706   -0.224648
H     -5.947958    0.188460    0.015293
H     -4.200507   -0.696400    1.532241
H     -1.822967   -0.480973    0.949945
H     -2.932171    1.511594   -2.725525
H     -5.303747    1.295151   -2.105650
H     -0.741588   -2.022012   -1.243237
H      1.008800   -3.509666   -0.375167
H      3.052801   -2.588639    0.620575
H      0.804002    2.424954   -0.148769
H      2.533065    2.231009    0.175091
H      4.194562   -0.781889    1.650336
H      3.537926    0.862150    1.649914
