14

C      1.028569    0.107597    0.343802
C     -0.070648   -0.389896   -0.599122
C     -1.326093   -0.696099    0.167576
O     -1.532881   -1.873536    0.566197
C     -2.297850    0.357982    0.499539
O     -2.101526    1.548360    0.138242
O     -3.443511    0.043464    1.219854
C      2.295043    0.385421   -0.408626
O      2.340371    1.283504   -1.234388
H      1.233005   -0.665849    1.115960
H      0.700898    1.037393    0.857699
H      0.274717   -1.310228   -1.120057
H     -0.283874    0.376664   -1.375885
H      3.183779   -0.204777   -0.210164
