17

C     -2.514088    1.049825   -0.443944
C     -1.390677    0.155239    0.008015
C     -0.126979    0.498439   -0.311676
N      1.010261   -0.334805   -0.033586
C      2.351352    0.157926   -0.149034
O      2.567135    1.372754   -0.407928
N      3.454998   -0.727068    0.038047
C     -1.718826   -0.991007    0.890157
O     -0.913820   -1.378399    1.778105
O     -2.957870   -1.612269    0.790275
H     -2.650669    1.870304    0.291314
H     -3.466250    0.486607   -0.532408
H     -2.295385    1.490298   -1.440741
H      0.037071    1.423053   -0.854292
H      0.882758   -1.351879    0.162826
H      4.434238   -0.373534   -0.042099
H      3.296751   -1.735485    0.256969
