12

C     -0.904708   -0.891588   -0.413768
C     -0.135833    0.179450    0.364786
C      1.178957   -0.355334    0.862545
O      2.023915   -0.769293    0.083379
C      0.084915    1.402654   -0.479577
O     -0.275401    2.533670   -0.059050
O      0.705471    1.299946   -1.719508
H     -0.333368   -1.221404   -1.308352
H     -1.090889   -1.773582    0.235916
H     -1.886579   -0.490027   -0.744435
H     -0.749103    0.460656    1.249725
H      1.382623   -0.375148    1.928341
