26

C      2.180835    1.526586    0.049691
C      0.892252    1.346893   -0.452956
C      0.333296    0.060075   -0.568762
C      1.114305   -1.065464   -0.183493
C      2.416690   -0.863429    0.305236
C      2.945941    0.422109    0.429929
O      4.235743    0.589640    0.929174
N      0.633916   -2.414003   -0.312561
O     -0.493328   -2.729911    0.117582
O      1.502589   -3.413821   -0.685309
C     -1.055693   -0.069259   -1.170132
C     -2.197695    0.350035   -0.213704
C     -2.189094   -0.458110    1.058824
O     -1.407765   -0.151944    1.998692
O     -3.020868   -1.565681    1.199838
N     -2.129794    1.779803    0.095818
H      2.587961    2.526330    0.132557
H      0.335384    2.218902   -0.770504
H      3.021776   -1.711292    0.601866
H      4.649215    1.509228    1.030835
H     -1.243076   -1.097971   -1.538895
H     -1.105519    0.566398   -2.081400
H     -3.159542    0.155221   -0.740342
H     -3.644785   -1.854131    0.455908
H     -2.954217    2.028405    0.690487
H     -2.248527    2.315392   -0.795014
