33

C     -0.128568    1.633954   -0.021478
C      1.319991    1.913610    0.247133
O      1.673496    3.072061    0.591695
C      2.286425    0.791807    0.164642
C      3.688654    0.956597    0.014886
C      4.518306   -0.171541    0.010889
C      3.979962   -1.457127    0.094482
C      2.596010   -1.625329    0.195235
C      1.752759   -0.512956    0.242213
O      0.369426   -0.713580    0.360364
C     -0.543906    0.333824    0.709414
C     -1.947536   -0.069378    0.277415
C     -2.134736   -0.772598   -0.929537
C     -3.418282   -1.113656   -1.364852
C     -4.538392   -0.742865   -0.612130
C     -4.368176   -0.024494    0.573704
C     -3.086145    0.319339    1.013140
O     -5.822398   -1.078095   -1.035789
O     -0.481447    0.494428    2.110934
O      4.829358   -2.561078    0.069198
O      4.296219    2.201096   -0.166334
H     -0.760986    2.488965    0.305178
H     -0.259788    1.511835   -1.118793
H      5.589700   -0.048174   -0.088942
H      2.173639   -2.620687    0.253243
H     -1.286129   -1.054296   -1.540377
H     -3.540942   -1.660722   -2.290976
H     -5.232217    0.273650    1.154023
H     -2.995279    0.889734    1.926964
H     -5.978825   -1.597022   -1.892030
H     -0.812932    1.399292    2.348864
H      4.470454   -3.507087    0.125607
H      3.792285    3.050492   -0.374824
