26

C     -3.457105    0.958521   -0.354949
C     -2.353865    0.097157    0.253030
C     -1.563759   -0.640548   -0.837490
C     -0.562378   -1.660986   -0.266549
C      0.537060   -1.061248    0.628937
C      1.433151   -0.056118   -0.113500
C      2.637710    0.365200    0.740670
C      3.531106    1.274558   -0.052748
O      4.582540    0.825904   -0.580710
O      3.180134    2.605354   -0.245449
O      2.191388    1.030645    1.893659
H     -4.180030    0.324781   -0.911527
H     -3.021428    1.711861   -1.045501
H     -4.001617    1.490470    0.453485
H     -1.675082    0.759079    0.831401
H     -2.813754   -0.637668    0.949063
H     -1.040165    0.090698   -1.489038
H     -2.277761   -1.197277   -1.483434
H     -1.121162   -2.421531    0.321371
H     -0.082290   -2.197231   -1.114039
H      1.166372   -1.902147    0.994370
H      0.084130   -0.583614    1.523125
H      0.843261    0.849108   -0.374677
H      1.799273   -0.522198   -1.055360
H      3.209715   -0.548507    1.028749
H      2.954556    1.045735    2.528996
