14

C      0.993505    0.778337   -0.503650
C      2.340374    0.447003   -1.053391
O      3.337012    0.375634   -0.287276
O      2.489321    0.164034   -2.405145
N      0.329865   -0.450814   -0.082786
C     -0.860585   -0.522201    0.438930
N     -1.659221    0.648730    0.655565
N     -1.381338   -1.800232    0.803529
H      0.392330    1.281535   -1.291564
H      1.106312    1.464354    0.364167
H     -2.610437    0.558657    1.076148
H     -1.327505    1.606215    0.407374
H     -0.816400   -2.665926    0.654361
H     -2.333232   -1.885324    1.223739
