38

C     -4.710497    1.379276   -0.028613
C     -4.899502   -0.090044   -0.405871
C     -4.366663   -1.048641    0.679482
C     -3.004368   -1.674042    0.334955
C     -1.865251   -0.645984    0.306364
C     -0.505500   -1.335641    0.142414
C      0.631305   -0.307556    0.094182
C      1.991348   -0.999485   -0.081213
C      3.170939   -0.017302   -0.000065
C      3.232792    0.933172   -1.212162
C      4.528318    1.769103   -1.290272
C      5.753772    0.911849   -1.482473
O      6.020654    0.447654   -2.622230
O      6.573391    0.589909   -0.406794
O      4.660312    2.630784   -0.185799
H     -3.639249    1.616466    0.130328
H     -5.274191    1.611871    0.899881
H     -5.096885    2.024246   -0.845698
H     -4.415862   -0.287015   -1.387335
H     -5.989060   -0.267540   -0.539399
H     -5.093474   -1.883154    0.789652
H     -4.313282   -0.547324    1.671191
H     -3.068044   -2.192572   -0.646946
H     -2.778313   -2.443083    1.106048
H     -1.868659   -0.061082    1.252462
H     -2.018228    0.048618   -0.547126
H     -0.505117   -1.928906   -0.798747
H     -0.338913   -2.028018    0.997024
H      0.452603    0.384952   -0.755976
H      0.633859    0.280744    1.038154
H      2.018248   -1.540810   -1.052397
H      2.117733   -1.753269    0.726832
H      3.095509    0.567104    0.942020
H      4.104262   -0.617677    0.046964
H      3.135683    0.343241   -2.150337
H      2.373823    1.636318   -1.169864
H      4.440019    2.414584   -2.191329
H      4.816488    2.079255    0.623451
