36

C      4.714974   -0.172691    0.826118
C      4.497119   -1.636929    0.445334
C      3.022133   -2.050369    0.526939
C      2.196705   -1.376115   -0.530084
O      2.165268   -1.859627   -1.694381
N      1.480898   -0.171603   -0.228240
C      0.692756    0.522616   -1.247260
C     -0.004635    1.761550   -0.673975
C     -1.055128    1.385880    0.330914
C     -0.927993    1.413986    1.716701
N     -2.057169    0.955484    2.303434
C     -2.892039    0.631661    1.300616
C     -2.314813    0.877162    0.081603
C     -2.980370    0.609272   -1.114630
C     -4.280805    0.075084   -1.040541
C     -4.875804   -0.176370    0.220262
C     -4.176771    0.102630    1.408778
O     -4.973408   -0.203021   -2.216414
H      4.310235    0.028155    1.840866
H      4.221132    0.498999    0.092875
H      5.802449    0.051367    0.827481
H      5.081991   -2.272894    1.144543
H      4.886390   -1.815935   -0.580811
H      2.950881   -3.150952    0.388462
H      2.616249   -1.820011    1.535857
H      1.546517    0.218594    0.739213
H      1.367610    0.842493   -2.070241
H     -0.064532   -0.172523   -1.671022
H     -0.483844    2.325040   -1.502952
H      0.747223    2.432410   -0.204402
H     -0.054351    1.743336    2.264019
H     -2.236113    0.863869    3.328145
H     -2.513594    0.805188   -2.071417
H     -5.875408   -0.587848    0.275878
H     -4.623206   -0.089853    2.375782
H     -5.910550   -0.588033   -2.199672
