23

C      2.933565    1.297715   -0.322041
C      2.890094   -0.065115   -0.628220
C      1.793791   -0.837726   -0.232644
C      0.732181   -0.250352    0.476288
C      0.782500    1.121380    0.777914
C      1.880524    1.890344    0.380005
C     -0.459043   -1.080682    0.882819
C     -1.392627   -1.374157   -0.304128
C     -2.092301   -0.124817   -0.861360
C     -3.067029    0.451135    0.119592
O     -2.792604    1.512187    0.739258
O     -4.270202   -0.197829    0.366368
H      3.782432    1.894575   -0.629653
H      3.705343   -0.522752   -1.173561
H      1.770453   -1.892066   -0.479123
H     -0.027039    1.595400    1.318194
H      1.914386    2.946344    0.614914
H     -1.025321   -0.584780    1.700762
H     -0.096151   -2.047468    1.294645
H     -2.161433   -2.110719    0.017102
H     -0.808878   -1.852420   -1.120660
H     -2.649330   -0.409202   -1.779532
H     -1.343314    0.641008   -1.156940
