44

C     -4.852428   -0.342092    2.262786
C     -5.278202   -0.396778    0.796500
C     -4.128342   -0.817972   -0.142649
C     -3.492657    0.356849   -0.909757
C     -2.694490    1.343479   -0.037870
C     -1.497484    0.730665    0.719278
C     -0.469185   -0.005885   -0.158380
C      0.215331    0.916864   -1.180661
C      1.236001    0.178816   -2.066479
C      2.442540   -0.416585   -1.317752
C      3.261845    0.646261   -0.560759
C      4.627260    0.128753   -0.059530
C      4.472369   -0.988251    0.986077
C      5.794028   -1.331635    1.601108
O      6.232876   -0.663529    2.574123
O      6.566464   -2.354005    1.065169
O      5.404066   -0.333691   -1.135493
H     -5.729758   -0.082399    2.891597
H     -4.467044   -1.330871    2.589701
H     -4.072105    0.426646    2.424256
H     -6.097534   -1.144185    0.713283
H     -5.703803    0.585312    0.496468
H     -3.353948   -1.404490    0.395810
H     -4.551046   -1.507649   -0.905944
H     -4.295003    0.920166   -1.434309
H     -2.835076   -0.046845   -1.707498
H     -2.332951    2.171081   -0.683212
H     -3.377902    1.818516    0.695312
H     -0.978081    1.546089    1.268272
H     -1.869658    0.025370    1.490692
H     -0.945658   -0.866067   -0.673788
H      0.298677   -0.421183    0.527235
H     -0.552903    1.340142   -1.860625
H      0.699363    1.770850   -0.661716
H      0.715549   -0.640717   -2.608739
H      1.610332    0.888133   -2.836852
H      3.090657   -0.909581   -2.074294
H      2.099713   -1.208465   -0.620454
H      2.679522    1.014121    0.311643
H      3.443446    1.514579   -1.231677
H      5.147838    0.985168    0.431859
H      4.051806   -1.901565    0.514594
H      3.774731   -0.662501    1.788370
H      5.710846    0.469084   -1.633735
