15

C     -1.524287    0.043275    0.620369
C     -0.776127    0.450657   -0.652087
C      0.278171   -0.574661   -1.006792
O      0.079445   -1.313045   -1.959871
C      1.553511   -0.756527   -0.219824
O      1.658088    0.175379    0.820728
O     -0.181220    1.711831   -0.491526
H     -1.975348   -0.964125    0.493047
H     -0.842703    0.025975    1.496200
H     -2.340843    0.767877    0.824455
H     -1.515722    0.498750   -1.486322
H      2.417834   -0.638069   -0.910335
H      1.569176   -1.786846    0.199819
H      2.514007   -0.021962    1.282622
H     -0.913981    2.381490   -0.518804
