22

C      3.548477    0.004531    0.540328
C      2.184632    0.588163    0.759598
O      2.082552    1.611165    1.490277
C      0.966204   -0.004544    0.142910
C     -0.296029    0.576033    0.375327
C     -1.460603    0.029106   -0.199820
C     -1.357146   -1.106806   -1.012640
C     -0.107024   -1.689489   -1.248426
C      1.044710   -1.145538   -0.677391
O     -2.505529   -1.652319   -1.584305
O     -2.732618    0.584157    0.012501
C     -2.988690    1.734029    0.812409
H      4.316810    0.593017    1.085820
H      3.796645    0.021908   -0.541549
H      3.576262   -1.040190    0.914672
H     -0.369340    1.452948    1.003808
H     -0.026471   -2.567584   -1.876672
H      1.992469   -1.624310   -0.883148
H     -2.464612   -2.473337   -2.176922
H     -4.077244    1.946844    0.802889
H     -2.672266    1.548389    1.860568
H     -2.451193    2.613827    0.399768
