18

C     -1.778621    0.396796    0.890232
C     -0.676353   -0.230435    0.030861
C      0.265233    0.862195   -0.523264
C      1.473472    0.300734   -1.291280
C      2.398273   -0.464658   -0.395433
O      3.183196    0.147108    0.375988
O      2.370331   -1.853533   -0.388912
C     -1.295746   -1.035003   -1.080105
O     -1.109943   -2.279077   -1.138626
O     -2.077268   -0.413145   -2.047036
H     -2.386729    1.110835    0.293733
H     -2.446606   -0.394475    1.293602
H     -1.330709    0.940541    1.749301
H     -0.091652   -0.909537    0.690237
H     -0.305087    1.532755   -1.203422
H      0.638168    1.491252    0.315457
H      2.035148    1.147029   -1.742488
H      1.134892   -0.349382   -2.125982
