50

C      5.956871   -0.088110   -2.280107
C      6.308457   -0.936081   -1.057626
C      5.137459   -1.066238   -0.071665
C      4.900775    0.221264    0.737121
C      3.706425    0.084910    1.705795
C      2.442054    0.824481    1.235226
C      1.831708    0.211970   -0.035842
C      0.570168    0.952570   -0.517361
C     -0.617305    0.948828    0.463594
C     -1.139001   -0.464714    0.772134
C     -2.340104   -0.465689    1.736130
C     -3.605953    0.238478    1.213302
C     -4.151259   -0.386341   -0.081360
C     -5.509774    0.224705   -0.480480
C     -5.974695   -0.316644   -1.845080
C     -7.253543    0.333192   -2.274099
O     -8.358841   -0.215713   -2.024104
O     -7.226421    1.567645   -2.910515
O     -6.480359   -0.021004    0.508687
H      5.791886    0.970682   -1.993620
H      6.796816   -0.121912   -3.005551
H      5.045448   -0.482347   -2.777848
H      7.196713   -0.505472   -0.546259
H      6.584856   -1.953375   -1.410481
H      4.218525   -1.363705   -0.619216
H      5.376491   -1.887717    0.638898
H      4.750981    1.088324    0.060167
H      5.817835    0.430145    1.331040
H      3.464493   -0.982678    1.904547
H      4.001663    0.525049    2.683611
H      2.677954    1.897436    1.062746
H      1.704044    0.767381    2.062209
H      1.615258   -0.865292    0.121089
H      2.574490    0.279061   -0.858231
H      0.839869    2.008389   -0.738785
H      0.240254    0.496752   -1.476513
H     -1.426593    1.538598   -0.014746
H     -0.347196    1.472248    1.404316
H     -1.396744   -0.993717   -0.169314
H     -0.333909   -1.048337    1.265174
H     -2.595170   -1.520741    1.977604
H     -2.034973    0.018371    2.689543
H     -3.412492    1.321022    1.061445
H     -4.379118    0.159616    2.008026
H     -3.428098   -0.201616   -0.904343
H     -4.259008   -1.485777    0.048706
H     -5.379681    1.326109   -0.572129
H     -6.114384   -1.418859   -1.792721
H     -5.199026   -0.109798   -2.614001
H     -6.587848   -1.005347    0.585715
