43

C      2.324636   -1.963951   -0.535341
C      2.833937   -1.019232    0.570428
C      3.516679   -1.856967    1.662186
C      3.856312   -0.016991    0.000808
O      1.736762   -0.329908    1.188311
C      0.835448    0.533701    0.548824
O      0.984905    0.844384   -0.664028
N     -0.275280    1.049841    1.292707
C     -1.395575    1.753290    0.658207
C     -2.557461    0.781241    0.383537
C     -2.141080   -0.321652   -0.556385
C     -1.763566   -1.577966   -0.054465
C     -1.315104   -2.578303   -0.921383
C     -1.228541   -2.332745   -2.298346
C     -1.602768   -1.079340   -2.801989
C     -2.055274   -0.078977   -1.936531
N     -0.753941   -3.351531   -3.182291
C     -1.853441    2.878707    1.541451
O     -2.236879    2.642068    2.720607
O     -1.857639    4.184685    1.042707
C     -2.279946    5.299509    1.818530
H      3.160602   -2.569166   -0.947691
H      1.557827   -2.654692   -0.124847
H      1.869812   -1.398758   -1.374330
H      4.378847   -2.424685    1.249270
H      3.884623   -1.199085    2.478881
H      2.795195   -2.579464    2.101187
H      3.442797    0.537296   -0.865878
H      4.147284    0.718407    0.781116
H      4.770314   -0.545969   -0.345978
H     -0.372196    0.745280    2.287988
H     -1.068615    2.198846   -0.307389
H     -3.407928    1.339054   -0.067423
H     -2.923577    0.348449    1.341080
H     -1.802848   -1.778226    1.009016
H     -1.024021   -3.540452   -0.518884
H     -1.536826   -0.875459   -3.863241
H     -2.326186    0.889144   -2.339211
H     -0.683618   -3.177759   -4.209853
H     -0.464105   -4.285247   -2.814937
H     -2.197411    6.221413    1.207211
H     -1.634356    5.403955    2.716233
H     -3.337796    5.167251    2.130140
