20

C     -2.322389   -0.313949    0.844732
C     -1.590017    0.534340   -0.198129
C     -0.074619    0.609368    0.080200
C      0.637916   -0.737543   -0.138062
C      2.164564   -0.606043   -0.053831
C      2.617299   -0.266042    1.333072
O      2.679309   -1.161305    2.216321
O      2.936337    1.045990    1.659467
O     -2.132078    1.829251   -0.177278
H     -2.022078   -1.379348    0.768354
H     -2.109180    0.056344    1.870307
H     -3.417797   -0.257880    0.669252
H     -1.763442    0.075874   -1.200162
H      0.095304    0.964850    1.119991
H      0.370476    1.360472   -0.608954
H      0.379689   -1.127130   -1.146876
H      0.295848   -1.481303    0.613144
H      2.520942    0.169109   -0.766361
H      2.626520   -1.571284   -0.354438
H     -1.892604    2.256228   -1.041316
