43

C     -2.368916    0.491334    1.754287
C     -2.364688   -0.470737    0.532820
C     -1.704528   -1.814017    0.896567
C     -0.178104   -1.639521    1.122934
C      0.549906   -0.872099   -0.029822
C     -0.201241    0.438311   -0.424267
C     -1.666146    0.068149   -0.725889
C     -2.644582    1.092041   -1.317698
C     -4.023788    0.442574   -1.070731
C     -3.768758   -0.536813    0.033299
O     -4.631933   -1.258087    0.509405
O     -2.418322    1.265830   -2.691762
C      0.509816    1.073264   -1.624640
C      1.913988    1.529903   -1.219030
C      2.670859    0.512929   -0.392275
C      2.025832   -0.582163    0.246340
C      2.815003   -1.476888    1.001767
C      4.181172   -1.253940    1.179954
C      4.797958   -0.152930    0.590075
C      4.044584    0.726448   -0.192435
O      6.161510    0.057171    0.783741
H     -2.774807    1.489466    1.486593
H     -3.010429    0.072539    2.559580
H     -1.363847    0.644157    2.190873
H     -1.868039   -2.551016    0.078837
H     -2.169024   -2.232913    1.815779
H      0.239369   -2.664159    1.208407
H      0.009206   -1.129796    2.091170
H      0.536069   -1.553552   -0.910782
H     -0.159902    1.171577    0.408881
H     -1.626529   -0.754531   -1.484787
H     -2.555523    2.063796   -0.779448
H     -4.772062    1.202356   -0.759802
H     -4.380098   -0.103266   -1.971375
H     -2.975968    2.038003   -2.970958
H     -0.050477    1.964344   -1.978519
H      0.575569    0.347543   -2.465465
H      2.488404    1.766723   -2.141170
H      1.829550    2.465726   -0.624350
H      2.392635   -2.359188    1.457090
H      4.764797   -1.946131    1.773817
H      4.531106    1.580168   -0.649159
H      6.640379    0.847393    0.367631
