24

C     -2.038514    1.524876   -0.153383
N     -1.715326    0.181003   -0.664041
C     -2.357826   -0.891137    0.118131
C     -1.803551   -0.976621    1.546511
C     -0.309697   -0.828125    1.590812
C      0.403231   -0.326473    0.566508
C     -0.258189   -0.034485   -0.766907
C      1.871295   -0.162203    0.681615
O      2.457119   -0.385377    1.777751
O      2.609510    0.243586   -0.435296
C      4.020097    0.423511   -0.399727
H     -3.137560    1.642042   -0.039474
H     -1.698775    2.292691   -0.880516
H     -1.548081    1.722258    0.824169
H     -3.458350   -0.735449    0.152600
H     -2.191192   -1.864348   -0.394823
H     -2.258808   -0.180520    2.173131
H     -2.085139   -1.955815    1.989097
H      0.176006   -1.060625    2.530734
H     -0.071411   -0.896599   -1.442934
H      0.219713    0.849443   -1.244585
H      4.285019    1.205122    0.343489
H      4.518723   -0.532519   -0.133555
H      4.371704    0.745765   -1.401222
