20

C     -1.836085   -0.732396    1.442340
C     -1.768968   -0.620846   -0.080330
C     -0.955325    0.598525   -0.539454
C      0.511120    0.476365   -0.182297
C      1.280188   -0.386074   -0.881529
C      2.724342   -0.635120   -0.681090
O      3.392798   -0.031015    0.197882
O      3.362906   -1.565552   -1.490415
C      1.058011    1.336179    0.929076
H     -0.824798   -0.910210    1.864912
H     -2.488111   -1.586214    1.722791
H     -2.259587    0.196494    1.880105
H     -1.336654   -1.554192   -0.501339
H     -2.804357   -0.523742   -0.472628
H     -1.054478    0.706132   -1.641918
H     -1.398384    1.517571   -0.098406
H      0.813886   -0.961233   -1.673256
H      1.844096    2.013842    0.534798
H      0.265242    1.965727    1.384134
H      1.474160    0.695757    1.734837
