22

C      0.585482   -0.090028   -0.962142
C      1.289261   -0.278792    0.392648
C      2.621815    0.401034    0.384056
O      3.648648   -0.225139    0.007866
O      2.718207    1.739989    0.749703
C     -0.838713   -0.699665   -1.046161
C     -1.946039    0.260914   -0.554741
C     -1.909629    0.521901    0.923263
O     -2.331876   -0.351307    1.726231
O     -1.406282    1.720974    1.420779
N     -0.916668   -1.994036   -0.362633
H      1.213671   -0.574926   -1.742357
H      0.541252    0.992900   -1.213528
H      0.686019    0.145616    1.217332
H      1.438403   -1.360316    0.599899
H      3.610152    2.219892    0.733554
H     -1.044599   -0.868867   -2.128664
H     -2.938089   -0.171710   -0.809302
H     -1.874044    1.223458   -1.105580
H     -1.042407    2.435768    0.802150
H     -0.239157   -2.646512   -0.820732
H     -1.865409   -2.401147   -0.531665
