35

C     -4.856160    0.823259    0.366103
C     -4.033239    0.721853   -0.917482
C     -3.431465   -0.677459   -1.134856
C     -2.457128   -1.146192   -0.034900
C     -1.264690   -0.208819    0.228906
C     -0.351566   -0.044450   -0.998022
C      0.872229    0.839783   -0.708342
C      1.935374    0.123481    0.138227
C      3.190653    0.991954    0.289666
C      4.214626    0.321938    1.160141
C      4.900574   -0.744816    0.737443
C      5.915449   -1.402417    1.573869
O      6.535864   -2.402296    1.127437
O      6.200809   -0.937174    2.852689
H     -4.200519    0.750278    1.258535
H     -5.372459    1.805797    0.396837
H     -5.621947    0.019474    0.401155
H     -3.236937    1.495253   -0.916880
H     -4.701450    0.947248   -1.776663
H     -2.917497   -0.698429   -2.118958
H     -4.260930   -1.414860   -1.202316
H     -3.017314   -1.285920    0.914176
H     -2.066962   -2.148148   -0.318005
H     -0.681876   -0.650710    1.063540
H     -1.623530    0.783216    0.574963
H     -0.021012   -1.040624   -1.365406
H     -0.926612    0.443278   -1.813192
H      1.326697    1.124609   -1.682829
H      0.550078    1.776151   -0.201804
H      2.207089   -0.838071   -0.349786
H      1.529302   -0.094714    1.148735
H      2.909494    1.960891    0.756775
H      3.633929    1.207167   -0.707439
H      4.408393    0.744321    2.138965
H      4.712736   -1.144850   -0.252300
