26

C      3.444177    1.299729   -1.144625
C      2.031125    0.914165   -0.716429
C      2.047567   -0.323028    0.193307
C      0.657212   -0.663161    0.752362
C     -0.291299   -1.224080   -0.321455
C     -1.618047   -1.713234    0.279004
C     -2.420818   -0.593647    0.880920
C     -2.996141    0.342414    0.119650
C     -3.788087    1.439038    0.695821
O     -4.311620    2.293944   -0.065102
O     -3.967235    1.547864    2.070343
H      3.402064    2.189310   -1.807887
H      3.920061    0.464002   -1.700720
H      4.062827    1.548970   -0.256252
H      1.573132    1.772433   -0.178238
H      1.432966    0.709175   -1.629118
H      2.455411   -1.196435   -0.361504
H      2.723653   -0.125906    1.054214
H      0.785928   -1.426519    1.550729
H      0.212871    0.241874    1.221108
H     -0.499085   -0.453331   -1.093203
H      0.198240   -2.085263   -0.826239
H     -1.409713   -2.474501    1.061753
H     -2.219532   -2.210213   -0.513004
H     -2.542846   -0.575011    1.957311
H     -2.882813    0.301411   -0.957476
