18

C     -1.180824   -0.871208   -0.655412
C      0.233173   -1.140628   -0.135579
C      1.100048    0.123353   -0.264247
N      0.432581    1.292103    0.318905
C     -0.996308    1.409887    0.364572
O     -1.521597    2.523598    0.630289
C     -1.872849    0.204071    0.185917
C      2.431779   -0.094673    0.393513
O      2.530130   -0.097314    1.649487
O      3.558733   -0.332980   -0.383014
H     -1.135176   -0.545445   -1.718202
H     -1.775453   -1.809055   -0.610565
H      0.177543   -1.467049    0.927182
H      0.688276   -1.964924   -0.727164
H      1.270188    0.326487   -1.344656
H      0.999358    2.154166    0.489406
H     -2.823436    0.499049   -0.308724
H     -2.116167   -0.209438    1.188292
