29

C      0.200651   -0.213987   -0.606000
C     -0.887943    0.590449    0.122026
C     -2.112981   -0.265356    0.488019
C     -3.226135    0.566200    1.139521
C     -3.870775    1.498952    0.160563
O     -4.704087    1.058873   -0.676032
O     -3.527203    2.847213    0.156852
C      0.917600   -1.214800    0.317469
C      2.122847   -1.889289   -0.370330
C      3.465226   -1.206343   -0.063855
C      3.571316    0.147043   -0.692827
O      3.804486    0.253519   -1.926620
O      3.382756    1.288005    0.080912
H     -0.245909   -0.753380   -1.469974
H      0.936272    0.509097   -1.013472
H     -0.462676    1.055589    1.038292
H     -1.207952    1.412656   -0.553741
H     -1.809943   -1.049089    1.213796
H     -2.508314   -0.774320   -0.418678
H     -2.817585    1.143645    1.997076
H     -4.002251   -0.121190    1.540301
H     -3.945179    3.487859   -0.507203
H      0.196767   -2.011773    0.598943
H      1.237540   -0.711988    1.256373
H      1.968674   -1.959603   -1.469925
H      2.193467   -2.933499    0.005819
H      3.607486   -1.122106    1.035315
H      4.288434   -1.843250   -0.453932
H      3.435413    2.210873   -0.333307
