24

C      4.615709   -0.055931    0.017306
C      3.796473   -0.871970    0.802366
C      2.405249   -0.748216    0.727948
C      1.825101    0.198461   -0.137713
C      2.654363    1.012197   -0.920926
C      4.045029    0.885473   -0.843724
N      0.404678    0.353192   -0.240159
N     -0.404678   -0.353194    0.442355
C     -1.825101   -0.198460    0.339912
C     -2.654363   -1.012204    1.123118
C     -4.045029   -0.885479    1.045917
C     -4.615709    0.055936    0.184897
C     -3.796473    0.871981   -0.600155
C     -2.405249    0.748223   -0.525741
H      5.692084   -0.153036    0.076145
H      4.239529   -1.600709    1.468846
H      1.786891   -1.388829    1.343515
H      2.220966    1.744320   -1.590854
H      4.680078    1.517087   -1.451403
H     -2.220967   -1.744342    1.793028
H     -4.680078   -1.517108    1.653582
H     -5.692084    0.153040    0.126058
H     -4.239529    1.600729   -1.266625
H     -1.786891    1.388840   -1.141303
