43

C     -2.634951   -1.341998   -0.014085
C     -2.317273    0.015938   -0.700802
C     -1.612134   -0.205576   -2.052487
C     -0.175409   -0.759572   -1.845335
C      0.676762    0.060293   -0.820908
C     -0.106469    0.338323    0.499233
C     -1.451460    0.979761    0.122633
C     -2.384707    1.540596    1.196639
C     -3.719485    1.719145    0.440836
C     -3.591114    0.793580   -0.732985
O     -4.454970    0.657148   -1.585994
O     -4.807551    1.340006    1.238662
C      0.743358    1.246051    1.395276
C      2.005773    0.502152    1.840662
C      2.690613   -0.258687    0.724494
C      2.044126   -0.548785   -0.509382
C      2.760688   -1.270467   -1.488678
C      4.045052   -1.750873   -1.228829
C      4.655112   -1.502527   -0.001199
C      3.979338   -0.759625    0.970855
O      5.935353   -1.994937    0.242605
H     -3.082063   -1.196735    0.991726
H     -3.366455   -1.910546   -0.628047
H     -1.743569   -1.986404    0.105892
H     -1.553376    0.754846   -2.611679
H     -2.195965   -0.916033   -2.677390
H     -0.216990   -1.824182   -1.533534
H      0.313315   -0.730794   -2.841313
H      0.886158    1.039356   -1.309115
H     -0.280586   -0.609239    1.052351
H     -1.202003    1.866869   -0.513573
H     -2.484965    0.821246    2.038598
H     -2.017665    2.514636    1.586822
H     -3.834843    2.765062    0.074868
H     -4.926903    2.063591    1.907526
H      1.024964    2.174858    0.851114
H      0.171594    1.539428    2.301752
H      2.712589    1.238212    2.282181
H      1.732271   -0.223364    2.637694
H      2.344551   -1.467209   -2.464619
H      4.571759   -2.312908   -1.989820
H      4.460209   -0.569731    1.923130
H      6.407322   -1.830906    1.124224
