27

C      4.342092    0.351172   -0.176126
C      2.862300    0.544669   -0.095841
O      2.411146    1.658954    0.279263
N      1.983188   -0.509466   -0.525152
C      0.554950   -0.564286   -0.312302
C     -0.154032   -1.498470   -0.969358
O     -1.530724   -1.667032   -0.774811
C     -2.334703   -0.764594   -0.016317
C     -1.505493   -0.153756    1.139310
C     -0.140728    0.389144    0.643491
O     -0.318198    1.626068    0.003197
O     -1.315050   -1.105287    2.159012
C     -2.947737    0.281427   -0.962089
O     -3.817543    1.135567   -0.267247
H      4.675407    0.482887   -1.226425
H      4.608523   -0.670484    0.166962
H      4.865666    1.089629    0.467593
H      2.432857   -1.311450   -1.023893
H      0.345952   -2.173167   -1.652462
H     -3.176910   -1.342576    0.423607
H     -2.075954    0.682756    1.596430
H      0.512195    0.523334    1.537052
H     -0.474787    2.300361    0.715113
H     -0.800291   -1.864396    1.779805
H     -2.158134    0.850720   -1.501993
H     -3.537635   -0.251294   -1.738002
H     -3.306358    1.959572   -0.055246
