25

C     -2.110465   -1.588623   -1.406146
C     -1.167181   -1.111959   -0.300351
C     -1.684498    0.218343    0.333081
C     -0.830762    1.399790   -0.149809
C      0.668637    1.160259    0.124601
C      1.018126   -0.351199    0.046471
O      0.136813   -0.991050   -0.857616
O      2.341717   -0.535752   -0.428345
C      3.268882   -0.468526    0.634333
O      1.434561    1.886668   -0.803074
O     -1.618006    0.124456    1.734166
H     -3.125446   -1.775674   -0.994635
H     -1.730928   -2.536660   -1.843356
H     -2.177019   -0.825976   -2.211478
H     -1.155649   -1.914630    0.472722
H     -2.744014    0.404919    0.035997
H     -1.159862    2.339422    0.345062
H     -0.994677    1.524657   -1.243576
H      0.905825    1.510623    1.156643
H      0.894214   -0.811611    1.061550
H      4.293576   -0.523382    0.213206
H      3.142249   -1.331133    1.324819
H      3.185658    0.490609    1.191292
H      1.377123    2.841339   -0.535975
H     -2.168875    0.865092    2.100417
