19

C     -1.854964   -1.392008    0.118426
N     -0.620521   -0.785859    0.628719
C     -0.158868    0.311451   -0.245022
C      1.280432    0.732847    0.116417
C      2.282093   -0.312344   -0.271010
O      2.606680   -0.458250   -1.479904
O      2.837089   -1.137348    0.702324
C     -1.063952    1.505041   -0.097984
O     -1.344489    1.953253    1.046632
O     -1.574514    2.129835   -1.231476
H     -2.154167   -2.230093    0.782805
H     -1.705995   -1.794543   -0.907803
H     -2.683044   -0.651971    0.114227
H      0.098590   -1.545980    0.631258
H     -0.170428   -0.012999   -1.311829
H      1.542743    1.674616   -0.414994
H      1.354649    0.930571    1.208331
H      3.507743   -1.854835    0.454216
H     -2.179077    2.938617   -1.150861
