38

C     -4.208630   -0.901899   -0.349678
C     -2.877374   -1.328084   -0.323815
C     -1.881636   -0.515054    0.243283
C     -2.240147    0.730873    0.777511
C     -3.570697    1.158243    0.750908
C     -4.569771    0.345212    0.190080
C     -5.980744    0.806761    0.161174
N     -6.956821   -0.030086    0.355503
N     -6.274169    2.189163   -0.074660
N     -0.509056   -0.934026    0.275898
N     -0.130209   -2.211108   -0.177886
N      1.084702   -2.569163   -0.347848
C      2.225599   -1.705981   -0.234517
C      3.360751   -2.161092    0.444105
C      4.504576   -1.361325    0.525536
C      4.537515   -0.098992   -0.094273
C      3.408636    0.337509   -0.808911
C      2.265987   -0.463839   -0.887470
C      5.750227    0.754150   -0.016633
N      6.453938    0.808540    1.075425
N      6.148690    1.533069   -1.151226
H     -4.951194   -1.540258   -0.811497
H     -2.628936   -2.290087   -0.752735
H     -1.487227    1.372014    1.218695
H     -3.819759    2.117606    1.186631
H     -7.949692    0.293409    0.332091
H     -6.783293   -1.038061    0.566437
H     -5.518644    2.865814   -0.321785
H     -7.258448    2.537552   -0.053247
H      0.192068   -0.308750    0.732599
H      3.355890   -3.135811    0.915821
H      5.370459   -1.741589    1.052585
H      3.403966    1.302944   -1.298842
H      1.417067   -0.120174   -1.464879
H      6.176744    0.283843    1.934799
H      7.309103    1.405783    1.130053
H      5.658167    1.440072   -2.067985
H      6.972363    2.172823   -1.097232
