9

N     -0.000000    0.000000   -0.000000
N     -0.003818    0.031176   -0.158866
O     -0.153398    1.252426    0.043298
O     -1.088821   -0.751075   -0.473927
O      1.246037   -0.532527   -0.066614
H     -0.620841    0.766698    0.342846
H     -0.579341   -0.738697   -0.457714
H      0.519104   -0.414328    0.806024
H      0.681078    0.386328   -0.691155
