37

C     -5.319732   -0.965243    1.575437
O     -3.922709   -0.693203    1.618521
C     -3.160436   -0.283104    0.514307
C     -1.795036   -0.051059    0.700287
C     -0.971973    0.361113   -0.366283
C     -1.543646    0.543452   -1.647114
C     -2.920464    0.308259   -1.827710
C     -3.719713   -0.100195   -0.759918
O     -0.726680    0.955196   -2.714010
C     -1.179168    1.171128   -4.046834
C      0.511987    0.604744   -0.124609
C      1.226646   -0.677626    0.346235
N      2.676318   -0.486099    0.355727
C      3.379313    0.087090    1.467048
O      2.768178    0.370959    2.532562
C      4.862562    0.298760    1.389133
N      5.577072   -0.929196    1.732643
O      0.697907    1.665434    0.780089
H     -5.661254   -1.268823    2.586154
H     -5.525496   -1.794866    0.866483
H     -5.876900   -0.054292    1.270545
H     -1.376996   -0.198222    1.687869
H     -3.386465    0.438717   -2.794650
H     -4.772803   -0.271243   -0.936946
H     -1.947329    1.972850   -4.064350
H     -1.595701    0.230902   -4.465904
H     -0.320814    1.488829   -4.673405
H      1.003722    0.906621   -1.072817
H      0.876274   -0.993540    1.352418
H      0.984322   -1.501646   -0.360411
H      3.221153   -0.795540   -0.480733
H      5.137749    0.616983    0.359662
H      5.161501    1.112436    2.086592
H      6.606178   -0.753897    1.674133
H      5.324544   -1.691442    1.062072
H      5.337783   -1.222372    2.707981
H      0.370109    1.373515    1.669795
