26

C      0.095564   -0.281883    0.331846
C     -1.068120    0.492262   -0.310069
C     -2.448221    0.028074    0.205883
C     -3.514291    0.960205   -0.305716
O     -4.120075    1.726564    0.488940
O     -3.822020    0.996103   -1.660653
N     -2.747049   -1.350696   -0.205248
C      1.461295    0.322782   -0.051995
C      2.611247   -0.420971    0.658495
N      3.906520    0.194142    0.365660
O      1.642501    0.304196   -1.447059
H      0.065414   -1.344375    0.008076
H     -0.014808   -0.251760    1.438255
H     -1.023945    0.381470   -1.416018
H     -0.946388    1.572785   -0.072026
H     -2.446875    0.076816    1.319136
H     -2.117780   -2.019490    0.293350
H     -2.627234   -1.465293   -1.238341
H     -3.731576   -1.593669    0.052893
H      1.478503    1.382602    0.284891
H      2.627247   -1.487072    0.339340
H      2.440699   -0.398188    1.758098
H      4.117430    0.125519   -0.656198
H      3.904041    1.197479    0.661000
H      4.652004   -0.311664    0.896385
H      1.625918   -0.644980   -1.738923
