26

C      3.329704   -0.276895   -0.770637
C      1.915453    0.167758   -0.514728
N      1.656508    1.490062   -0.315454
C      0.403845    1.948171   -0.064957
C     -0.686038    1.065749    0.012882
C     -0.461213   -0.308935   -0.255449
C      0.854481   -0.761131   -0.489831
O      1.081483   -2.126489   -0.696144
C     -1.595334   -1.318775   -0.259272
N     -1.762315   -1.919640    1.064009
C     -2.074825    1.617961    0.283530
O     -2.027931    2.818961    1.007804
H      3.646566   -0.996283    0.013445
H      4.033284    0.581712   -0.752367
H      3.399026   -0.757131   -1.769279
H      2.434956    2.186479   -0.350205
H      0.259755    3.012035    0.078027
H      1.997702   -2.518865   -0.869860
H     -2.548553   -0.854446   -0.589492
H     -1.393768   -2.120013   -1.003950
H     -1.956523   -1.181056    1.777924
H     -0.897406   -2.443872    1.330441
H     -2.567126   -2.586561    1.038582
H     -2.697920    0.891136    0.847524
H     -2.573763    1.810318   -0.689139
H     -1.770048    2.579749    1.936596
