16

C     -2.292243   -0.105405    0.609174
C     -1.756151    1.180231    0.513883
C     -0.427840    1.358772    0.115348
C      0.383423    0.248135   -0.185929
C     -0.172671   -1.042822   -0.096577
C     -1.502292   -1.214978    0.301667
C      1.789787    0.452525   -0.611875
O      2.141873    1.566515   -1.085670
N      2.768351   -0.582745   -0.484156
H     -3.321103   -0.241626    0.916404
H     -2.370144    2.040041    0.749107
H     -0.032269    2.365016    0.052787
H      0.404012   -1.920117   -0.355502
H     -1.922492   -2.210470    0.365579
H      2.573888   -1.462075    0.042175
H      3.735873   -0.430997   -0.846415
