19

C      0.296940   -0.038339    1.305497
C      1.386819   -0.760434    0.487990
C      1.806022    0.005679   -0.730458
O      1.409648   -0.356853   -1.869251
O      2.619081    1.129323   -0.614388
C     -1.091564    0.113777    0.626055
C     -1.632314   -1.214338    0.155100
O     -1.242928   -1.721957   -0.885411
C     -1.133041    1.171090   -0.460126
O     -0.307460    2.122637   -0.450578
O     -2.148844    1.183855   -1.415341
H      0.151028   -0.619916    2.242463
H      0.672952    0.958466    1.624417
H      2.280424   -0.888322    1.135865
H      1.058159   -1.783071    0.208428
H      2.945197    1.448098    0.290121
H     -1.784032    0.472709    1.418457
H     -2.390282   -1.722809    0.742152
H     -2.895805    0.500403   -1.416336
