32

C     -4.735582    0.125006    0.206202
C     -4.339761   -1.208928    0.210666
C     -2.983942   -1.544359    0.201473
C     -1.984239   -0.539042    0.187388
C     -0.585235   -0.831471    0.177570
C      0.346559    0.243769    0.163638
C     -0.103435    1.582822    0.159561
C     -1.471262    1.857587    0.169240
C     -2.408963    0.819998    0.182979
C     -3.777926    1.135701    0.192424
C      0.823763    2.636684    0.145794
C      2.194456    2.376295    0.136029
C      2.662701    1.057030    0.139829
C      1.739054   -0.014921    0.153662
C      2.211850   -1.343678    0.157502
C      3.592754   -1.592911    0.147570
C      4.499249   -0.530093    0.133927
C      4.039833    0.789071    0.130050
C      1.298585   -2.399915    0.171159
C     -0.075316   -2.152831    0.181036
H     -5.788298    0.376803    0.213422
H     -5.088664   -1.990671    0.221363
H     -2.754590   -2.596401    0.205695
H     -1.809858    2.888743    0.166036
H     -4.108285    2.167967    0.189120
H      0.487285    3.666866    0.142577
H      2.889042    3.207967    0.125481
H      3.970734   -2.608428    0.150357
H      5.563038   -0.729791    0.126340
H      4.759985    1.598632    0.119405
H      1.647885   -3.426002    0.174252
H     -0.711416   -3.021501    0.191321
