12

C      0.543085    0.709668    0.596394
C      1.118076   -0.467602    0.102135
N      0.362154   -1.313972   -0.645445
C     -0.939581   -1.039610   -0.921978
C     -1.513744    0.135537   -0.428680
O     -2.719404    0.404458   -0.676160
N     -0.760169    0.986697    0.320907
O      2.448702   -0.780624    0.365793
H      1.128540    1.397180    1.194067
H     -1.520390   -1.730246   -1.519914
H     -1.183273    1.867006    0.692788
H      3.036006   -0.168493    0.920092
