33

C      3.182296    0.936470    1.766891
C      3.302850    0.104135    0.484052
C      4.683294    0.289296   -0.088450
O      5.015437    1.390745   -0.604645
O      5.603798   -0.752359   -0.026610
N      2.281949    0.516523   -0.500594
C      0.984024   -0.123784   -0.240190
C     -0.074791    0.434884   -1.200369
C     -1.432082   -0.275129   -1.070075
C     -2.174071    0.098876    0.228076
C     -3.581584   -0.525201    0.329395
C     -4.505854    0.045321   -0.717543
O     -4.700460   -0.568108   -1.800913
O     -5.118956    1.278469   -0.515646
N     -3.515741   -1.985351    0.225932
H      4.017928    0.697810    2.459857
H      2.235631    0.711037    2.298343
H      3.210361    2.021950    1.530328
H      3.184131   -0.973030    0.744200
H      6.539153   -0.641826   -0.399530
H      2.586866    0.198029   -1.451961
H      0.662168    0.078630    0.800982
H      1.068203   -1.225482   -0.380481
H     -0.198370    1.526664   -1.028936
H      0.284082    0.298775   -2.244109
H     -1.284233   -1.375532   -1.124820
H     -2.051384    0.024389   -1.942222
H     -2.262179    1.205472    0.300245
H     -1.583809   -0.243525    1.104045
H     -3.997562   -0.260503    1.328144
H     -4.966208    1.806890    0.334986
H     -2.920589   -2.344526    1.007788
H     -4.474296   -2.370008    0.393829
