50

C     -6.950515   -0.052605    0.598682
C     -5.486024   -0.355926    0.941114
C     -5.296660   -1.869450    1.124992
C     -4.557406    0.213127   -0.155737
C     -3.067382    0.142036    0.229334
C     -2.165075    0.937899   -0.744880
C     -2.086467    0.271516   -2.129110
C     -0.756988    1.194174   -0.153013
C      0.067958   -0.083703    0.102366
C      1.421418    0.212625    0.769513
C      2.451704    0.790755   -0.215939
C      3.787605    1.149509    0.459649
C      4.544311   -0.037047    1.090646
C      4.840674   -1.209462    0.133822
C      5.682909   -0.828638   -1.093782
C      7.037083   -0.319377   -0.706857
O      7.942729   -1.127793   -0.369001
O      7.284573    1.049604   -0.689190
H     -7.235979   -0.533687   -0.361706
H     -7.619932   -0.428820    1.401645
H     -7.106210    1.043905    0.511096
H     -5.256107    0.146537    1.906922
H     -5.437676   -2.403273    0.160698
H     -6.030858   -2.262280    1.860490
H     -4.284121   -2.092461    1.519735
H     -4.826257    1.278622   -0.328743
H     -4.727840   -0.338444   -1.105623
H     -2.744760   -0.919994    0.248898
H     -2.946736    0.558356    1.253618
H     -2.620448    1.943082   -0.890927
H     -1.803586   -0.798688   -2.042425
H     -1.340150    0.790936   -2.767202
H     -3.067637    0.335724   -2.643711
H     -0.205985    1.859228   -0.850663
H     -0.868788    1.752496    0.802430
H     -0.498222   -0.752298    0.784061
H      0.238519   -0.633741   -0.847476
H      1.809023   -0.746475    1.173435
H      1.278952    0.907053    1.626284
H      2.621628    0.080813   -1.052478
H      2.051045    1.724509   -0.661712
H      3.594122    1.902396    1.254607
H      4.442652    1.647182   -0.286395
H      3.966667   -0.422603    1.957126
H      5.502301    0.341474    1.507645
H      5.377796   -1.998749    0.704149
H      3.887685   -1.666379   -0.206301
H      5.810485   -1.730316   -1.730881
H      5.155142   -0.071480   -1.710302
H      8.190826    1.410132   -0.415772
