39

C      7.015051    1.388206    0.190608
C      6.688056    1.388423    1.549531
C      5.454872    0.883001    1.973435
C      4.535447    0.384536    1.041414
C      4.878038    0.370127   -0.323779
C      6.111952    0.876350   -0.744945
O      3.315131   -0.128624    1.505519
C      2.104005   -0.110480    0.797698
C      1.783283    0.920144   -0.101815
C      0.558846    0.912656   -0.775662
C     -0.368683   -0.121790   -0.560754
C     -0.053966   -1.135731    0.361540
C      1.170941   -1.124485    1.035687
C     -1.668718   -0.112064   -1.272108
O     -2.134680    0.982332   -1.693737
N     -2.396508   -1.329864   -1.502675
C     -3.769546   -1.335465   -2.002480
C     -4.713628   -0.908222   -0.917606
C     -5.254979    0.386260   -0.900455
C     -6.103282    0.760137    0.143699
C     -6.401159   -0.152655    1.157130
C     -5.841000   -1.431310    1.111343
N     -5.014917   -1.777002    0.087812
H      7.970027    1.778704   -0.136409
H      7.390679    1.777839    2.274725
H      5.208699    0.885523    3.027820
H      4.203188   -0.050686   -1.057587
H      6.370881    0.865240   -1.795821
H      2.469771    1.738994   -0.269466
H      0.338408    1.715921   -1.467905
H     -0.759885   -1.925209    0.584122
H      1.396605   -1.908585    1.747402
H     -1.923034   -2.250605   -1.362998
H     -3.853261   -0.679259   -2.896903
H     -4.038990   -2.364794   -2.324766
H     -5.020681    1.097410   -1.682621
H     -6.526870    1.756431    0.169590
H     -7.058884    0.127080    1.970367
H     -6.061208   -2.148483    1.890675
