43

C      4.681833   -3.983537   -2.197992
O      3.275459   -3.780602   -2.100844
C      2.659919   -2.672327   -1.497525
C      1.242233   -2.578032   -1.460110
C      0.639911   -1.452898   -0.847867
C     -0.757464   -1.320365   -0.777960
N     -1.336507   -0.238616   -0.173430
C     -0.569083    0.781238    0.339915
C      0.832279    0.674210    0.308377
C      1.437232   -0.436852   -0.286405
C      2.830109   -0.543081   -0.326393
C      3.434129   -1.645396   -0.924052
C     -1.241502    1.952633    0.976985
C     -0.583436    3.191820    1.184802
C     -1.297105    4.220540    1.791003
C     -2.588361    4.073872    2.174621
C     -3.285068    2.888193    1.977563
C     -2.608408    1.819879    1.351297
C     -3.310036    0.511247    1.126760
C     -2.807404   -0.139727   -0.164640
O     -3.036511    5.249240    2.745847
C     -1.958527    6.194852    2.716375
O     -0.868409    5.497759    2.097534
O      0.389561   -3.559709   -2.006880
C      0.779359   -4.761556   -2.662096
H      5.147501   -3.160775   -2.780507
H      4.873136   -4.941504   -2.723334
H      5.130963   -4.039627   -1.183970
H     -1.389976   -2.088492   -1.208040
H      1.457809    1.430842    0.761882
H      3.455920    0.230430    0.103463
H      4.514386   -1.687720   -0.935114
H      0.434724    3.371573    0.872384
H     -4.317187    2.799205    2.291960
H     -3.104369   -0.161173    1.987293
H     -4.409129    0.661863    1.051397
H     -3.136379    0.463925   -1.038809
H     -3.276217   -1.145621   -0.247444
H     -2.241636    7.079827    2.108783
H     -1.684117    6.495286    3.749305
H     -0.132572   -5.311451   -2.972267
H      1.353832   -5.409933   -1.967691
H      1.369102   -4.529438   -3.573650
