48

C     -3.868120    2.286251   -0.228336
C     -2.932785    1.459404    0.659859
C     -3.437758   -0.001346    0.782121
C     -3.028153   -0.852746   -0.438016
C     -1.491802   -0.891124   -0.625823
C     -0.815190   -1.906153    0.337556
C      0.511555   -1.415854    0.958581
C      1.676691   -1.117046   -0.026705
C      2.913305   -1.095437    0.826470
C      3.270292    0.145623    1.135776
C      2.399051    1.147264    0.453297
C      1.726222    0.317079   -0.674965
C      0.364743    0.966899   -1.189150
C     -0.905782    0.498441   -0.498841
C     -1.524073    1.506677    0.115347
C     -0.725629    2.687006   -0.119583
O     -0.979704    3.847213    0.299153
O      0.370484    2.367974   -0.898209
O      0.192669    0.827080   -2.581522
C      2.741174    0.280801   -1.863914
C      4.403202    0.492894    2.062424
C     -0.660474   -3.287342   -0.321629
H     -4.910327    2.233577    0.148748
H     -3.561157    3.360656   -0.240004
H     -3.845742    1.905369   -1.271364
H     -2.927797    1.916346    1.669798
H     -3.029413   -0.451485    1.710392
H     -4.548865   -0.021646    0.877214
H     -3.440135   -1.879874   -0.343392
H     -3.488601   -0.408363   -1.348490
H     -1.325365   -1.230603   -1.670082
H     -1.487034   -2.069595    1.209618
H      0.314681   -0.529207    1.598971
H      0.833541   -2.212094    1.668450
H      1.766386   -1.918648   -0.787590
H      3.395003   -1.981236    1.229051
H      1.648437    1.517858    1.184577
H      2.992300    2.005501    0.064895
H      0.214360   -0.139745   -2.797800
H      3.765461    0.002277   -1.528497
H      2.811645    1.277929   -2.350624
H      2.442756   -0.468507   -2.625604
H      5.315408   -0.073489    1.770607
H      4.628146    1.585286    2.011880
H      4.124268    0.236814    3.112644
H     -0.168057   -3.998863    0.377093
H     -0.057735   -3.222662   -1.255641
H     -1.662083   -3.699152   -0.578739
