15

C     -1.955290   -0.771933   -0.009985
C     -0.521882   -0.904620   -0.419214
C      0.106728    0.262479   -0.292649
O     -0.735089    1.253337    0.184904
C     -1.973889    0.667506    0.361500
O     -2.982460    1.289204    0.786020
C      1.555683    0.488365   -0.586499
C      2.370764    0.231692    0.639005
O      2.833486   -0.917793    0.862865
O      2.579403    1.249473    1.561129
H     -2.179817   -1.415214    0.866555
H     -2.633798   -0.974965   -0.864933
H     -0.056400   -1.819819   -0.762027
H      1.889624   -0.176941   -1.412534
H      1.702938    1.539230   -0.914137
