16

C     -0.726003   -1.309139    0.857590
C     -0.632401    0.009566    0.473061
N     -1.731699    0.332816   -0.225052
C     -2.477924   -0.787430   -0.239677
N     -1.893519   -1.815609    0.412992
C      0.528246    0.925879    0.704190
C      1.430469    0.929255   -0.495093
O      1.270384    1.808338   -1.383720
C      2.468893   -0.097610   -0.676416
O      2.634211   -1.002022    0.184206
O      3.276671   -0.075168   -1.806575
H      0.009832   -1.870640    1.417869
H     -1.957703    1.249680   -0.670695
H     -3.440195   -0.860142   -0.728962
H      0.150286    1.953890    0.892584
H      1.090453    0.608335    1.608686
