45

C     -2.860329    0.170797    1.894005
C     -3.097191    0.513681    0.412752
C     -3.783488   -0.660538   -0.345229
C     -3.449177   -0.563164   -1.848322
C     -1.913643   -0.554838   -2.077516
C     -1.154426   -0.059780   -0.813581
O     -1.891748    0.979016   -0.192756
O      0.121897    0.454874   -1.145628
C      1.061778   -0.571784   -1.425265
C      2.321242   -0.393924   -0.552765
C      2.009033   -0.670424    0.938706
C      2.465159    0.581903    1.656961
C      3.240054    1.353628    0.589937
O      2.786369    0.937462   -0.677079
C      4.761003    1.141267    0.695358
O      5.258366    1.674802    1.893427
O      1.345826    1.326898    2.065035
O      2.715298   -1.784587    1.423687
O      3.321522   -1.276857   -1.009410
O     -1.590918    0.215702   -3.209544
O     -4.054828   -1.599045   -2.581088
O     -5.172891   -0.592445   -0.154563
O     -2.418532    1.299453    2.597817
H     -3.814823   -0.168055    2.349851
H     -2.126303   -0.659164    1.996685
H     -3.802479    1.374790    0.389328
H     -3.394160   -1.629063    0.048512
H     -3.876040    0.395842   -2.216861
H     -1.576076   -1.595091   -2.277792
H     -1.046584   -0.905236   -0.091190
H      1.352872   -0.476154   -2.493922
H      0.674311   -1.610427   -1.296621
H      0.921956   -0.827280    1.125070
H      3.096494    0.332243    2.543887
H      3.041469    2.444485    0.688166
H      5.267645    1.619164   -0.174827
H      4.999205    0.056162    0.665643
H      5.273676    2.661588    1.779316
H      1.664382    1.964442    2.756822
H      2.253146   -2.589900    1.067627
H      3.654709   -0.928650   -1.878264
H     -1.806600    1.162424   -2.999729
H     -3.785454   -2.461250   -2.169679
H     -5.533822   -1.501998   -0.325177
H     -1.457900    1.419030    2.378216
