21

C      1.149085   -0.840527   -0.370834
C      2.035834   -0.704015    0.881099
C      2.872010    0.539637    0.861741
O      2.790387    1.372367    1.802703
O      3.763752    0.765845   -0.179451
C     -0.083494    0.091479   -0.424847
C     -1.112458   -0.201365    0.691308
C     -2.388487    0.560655    0.461125
O     -2.547859    1.678973    1.019746
C     -3.437383    0.047154   -0.434272
O     -3.293465   -1.055893   -1.024739
O     -4.598883    0.782503   -0.635426
O      0.299882    1.445266   -0.453234
H      1.766440   -0.676098   -1.281229
H      0.791036   -1.892051   -0.425186
H      2.728850   -1.571717    0.913992
H      1.425394   -0.749162    1.806560
H     -0.583249   -0.123490   -1.395234
H     -0.702005    0.078858    1.684662
H     -1.334615   -1.290069    0.723710
H      0.459229    1.741652    0.479653
