20

C      2.204695    0.241640   -0.564169
C      0.753998    0.650793   -0.244922
C     -0.221438   -0.543802   -0.383029
C     -1.703733   -0.086423   -0.429682
C     -2.180022    0.507367    0.871597
O     -2.350831   -0.221080    1.884991
O     -2.416039    1.873415    0.964170
O     -2.543461   -1.142828   -0.826052
O     -0.016531   -1.451058    0.673249
O      0.682143    1.187698    1.051737
O      2.677637   -0.717490    0.343894
H      2.861292    1.141719   -0.551777
H      2.255331   -0.182350   -1.589669
H      0.459428    1.429051   -0.987883
H     -0.003835   -1.039598   -1.360182
H     -1.793351    0.699134   -1.211266
H     -2.491801   -1.853463   -0.135015
H     -0.184040   -2.362038    0.316236
H      1.076857    2.097782    1.008864
H      2.933700   -0.228469    1.168910
