20

C      0.334973    1.114208    0.188349
C      1.307791    0.408836    1.102025
O      0.979914    0.187056    2.298517
C      2.647638    0.001951    0.644694
O      3.022014    0.224968   -0.536825
O      3.512638   -0.639015    1.522899
C     -0.971723    0.310356   -0.091960
C     -0.712662   -0.924895   -0.995588
C      0.060626   -2.025751   -0.328352
O     -0.415870   -2.625979    0.670874
O      1.290150   -2.419755   -0.840864
C     -1.951931    1.206304   -0.824769
O     -1.576181    1.891389   -1.813860
O     -3.291539    1.232641   -0.453262
O     -1.558034   -0.117023    1.117275
H      0.825744    1.373733   -0.774503
H      0.071502    2.080983    0.671581
H     -0.173435   -0.609958   -1.916177
H     -1.685361   -1.355833   -1.321470
H     -1.716252    0.685785    1.681414
