15

C      0.094773   -0.657570   -0.770311
C      1.407107   -0.152714   -0.151950
C      1.040829    1.194212    0.363831
N     -0.187845    1.492207    0.189067
C     -0.929850    0.453799   -0.474359
C     -2.040368   -0.029598    0.411970
O     -3.193460   -0.207802   -0.061098
O     -1.794887   -0.320111    1.748950
O      1.859224   -0.988771    0.884263
H      0.217020   -0.774930   -1.869587
H     -0.206268   -1.642912   -0.348338
H      2.198869   -0.057318   -0.925525
H      1.735754    1.869022    0.852021
H     -1.347182    0.855587   -1.424291
H      1.146283   -1.033099    1.575357
