46

C     -1.533862    2.734818   -0.254282
C     -1.758797    1.443317    0.547068
C     -2.587311    0.435952   -0.285373
C     -2.981662   -0.820221    0.511782
C     -3.897612   -1.753039   -0.295375
C     -5.266016   -1.151091   -0.533305
C     -6.137945   -1.036186    0.479417
C     -5.670163   -0.698245   -1.910758
C     -0.421810    0.877164    1.091638
C      0.518897    0.309576    0.016891
O      1.741310   -0.124964    0.608852
C      2.755088    0.750898    1.013405
O      2.654960    1.992272    0.812509
C      3.994610    0.198183    1.638590
C      4.963937   -0.225152    0.570496
C      5.906992    0.686837    0.066884
C      6.786207    0.300891   -0.949860
C      6.724128   -0.992254   -1.476512
C      5.780012   -1.900839   -0.990016
C      4.898929   -1.519306    0.026767
H     -2.509497    3.216624   -0.478594
H     -0.924836    3.455571    0.331812
H     -1.020964    2.525513   -1.216098
H     -2.370830    1.725933    1.432898
H     -2.034237    0.142200   -1.203149
H     -3.516186    0.948936   -0.616989
H     -3.480297   -0.527857    1.461448
H     -2.067101   -1.393714    0.771249
H     -4.016734   -2.711177    0.256372
H     -3.404753   -2.002963   -1.259871
H     -5.877059   -1.367585    1.480026
H     -7.124731   -0.612305    0.318077
H     -4.844911   -0.835902   -2.640102
H     -6.547823   -1.284298   -2.256751
H     -5.936329    0.379684   -1.888105
H     -0.632004    0.083071    1.839150
H      0.104461    1.684098    1.645636
H      0.046090   -0.571036   -0.463392
H      0.731766    1.060741   -0.772435
H      4.457697    0.962839    2.300173
H      3.726988   -0.668833    2.280335
H      5.959342    1.694728    0.459842
H      7.513233    1.005625   -1.332259
H      7.404111   -1.288783   -2.264591
H      5.728495   -2.899911   -1.403529
H      4.166218   -2.229807    0.389020
