39

C     -1.706286   -3.928026   -0.101605
C     -1.794942   -2.438444   -0.259229
C     -1.052670   -1.597328    0.576284
C     -1.140169   -0.196919    0.464306
C     -2.031954    0.364414   -0.492209
C     -2.800127   -0.492040   -1.307944
C     -2.678975   -1.880735   -1.186426
O     -3.680009    0.040990   -2.251525
C     -2.208054    1.823995   -0.652141
O     -1.207199    2.569403   -0.833558
O     -3.498178    2.363538   -0.652563
C     -3.747803    3.753228   -0.824145
C     -0.356566    0.640594    1.458367
C      1.125029    0.340701    1.389133
C      1.729606   -0.313983    2.394313
C      3.167396   -0.625124    2.329012
O      3.722949   -1.238407    3.277972
C      3.954488   -0.219509    1.152106
C      3.368479    0.433929    0.132184
C      1.923362    0.743835    0.202073
O      1.374746    1.349480   -0.756339
O      4.079142    0.838627   -1.010521
C      5.469265    0.613476   -1.226484
H     -0.688740   -4.226807    0.229310
H     -1.915951   -4.438406   -1.065796
H     -2.446322   -4.263914    0.654431
H     -0.407425   -2.037276    1.327725
H     -3.277793   -2.526517   -1.817377
H     -4.240950   -0.552034   -2.852024
H     -3.257160    4.330578   -0.012078
H     -4.841395    3.934690   -0.784581
H     -3.362517    4.089657   -1.809960
H     -0.756113    0.427771    2.474356
H     -0.497760    1.728082    1.317384
H      1.167270   -0.628066    3.265731
H      5.008598   -0.461038    1.131175
H      5.682984   -0.476238   -1.235082
H      5.756702    1.039083   -2.209629
H      6.065039    1.114740   -0.434647
