32

C      0.175470   -2.096700   -0.988391
C      0.706778   -1.674248    0.396372
O     -0.347638   -1.212295    1.253043
C     -1.482499   -0.532964    0.788065
C     -2.358162    0.055860    1.704677
C     -3.474645    0.771330    1.258528
C     -3.720223    0.895452   -0.120206
C     -2.848585    0.294753   -1.040448
C     -1.734149   -0.429474   -0.589071
C     -0.815914   -1.105363   -1.522838
O     -0.900143   -0.911715   -2.765602
O     -4.828712    1.611097   -0.570150
O     -4.325612    1.353268    2.197534
C      1.815251   -0.644173    0.275143
C      3.152232   -1.076166    0.202989
C      4.191247   -0.152875    0.055224
C      3.908890    1.215460   -0.034790
C      2.583241    1.653762    0.020228
C      1.541400    0.733225    0.167928
O      4.935824    2.145091   -0.182031
H     -0.339268   -3.076881   -0.893190
H      1.017674   -2.225977   -1.703532
H      1.132877   -2.581560    0.878243
H     -2.162994   -0.031258    2.766175
H     -3.048770    0.384434   -2.101001
H     -5.028461    1.714776   -1.558195
H     -5.146008    1.881560    1.925700
H      3.391694   -2.130939    0.258838
H      5.214624   -0.502644    0.006630
H      2.359078    2.710252   -0.055644
H      0.528629    1.106186    0.196014
H      5.906873    1.858729   -0.226241
