42

C      6.277399    0.245679   -1.967254
C      5.309352   -0.570258   -2.555446
C      4.007736   -0.595697   -2.044784
C      3.656565    0.200886   -0.938641
C      4.644412    1.018663   -0.355383
C      5.946532    1.036067   -0.865793
C      2.267420    0.182709   -0.401653
C      2.030526    0.281792    0.982536
C      0.726994    0.245948    1.485774
C     -0.372658    0.122304    0.619426
C     -0.136836    0.005568   -0.763947
C      1.165597    0.046163   -1.268319
C     -1.772660    0.021036    1.205422
C     -2.824559    0.655321    0.308539
C     -3.682285   -0.114251   -0.502688
C     -4.613854    0.511959   -1.337233
C     -4.688325    1.907351   -1.387442
C     -3.828745    2.680502   -0.605298
C     -2.900468    2.059794    0.235732
N     -2.105638   -1.369134    1.556574
C     -2.955512   -1.756600    2.524416
C     -3.006801   -3.132351    2.525202
N     -2.200355   -3.614342    1.556877
C     -1.668411   -2.513319    0.982260
H      7.284405    0.264862   -2.363961
H      5.567147   -1.184127   -3.407831
H      3.282480   -1.250027   -2.507303
H      4.408253    1.660749    0.482935
H      6.697433    1.672347   -0.412575
H      2.854864    0.356183    1.683554
H      0.578054    0.296438    2.558942
H     -0.957677   -0.119206   -1.456441
H      1.307650   -0.018626   -2.338936
H     -1.778268    0.608715    2.153211
H     -3.638345   -1.194904   -0.495334
H     -5.276807   -0.084649   -1.948190
H     -5.406603    2.389990   -2.037903
H     -3.878998    3.762993   -0.652732
H     -2.232347    2.674877    0.827486
H     -3.507784   -1.088169    3.173114
H     -3.600109   -3.749519    3.184495
H     -0.978777   -2.553716    0.148722
