34

C     -5.579192    0.060916   -0.088418
C     -4.096696   -0.169688   -0.076250
C     -3.579810   -1.446786   -0.326537
C     -2.194970   -1.667523   -0.354547
C     -1.303731   -0.586512   -0.140366
C     -1.835593    0.700869    0.096261
C     -3.218677    0.902508    0.118919
O     -1.033299    1.733622    0.310310
C      0.289819    1.640608    0.296638
C      1.040742    2.786452    0.568167
C      2.434664    2.731971    0.582982
C      3.085017    1.533557    0.293425
C      2.359023    0.372460   -0.019844
C      0.931121    0.404867    0.022972
C      0.101699   -0.733649   -0.147765
O      0.607193   -1.881683   -0.269683
C      3.143571   -0.805796   -0.441041
O      2.866953   -1.396998   -1.520977
O      4.241947   -1.208598    0.324820
C      5.061903   -2.314038   -0.033905
O      3.186184    3.868514    0.873998
O     -1.717508   -2.955445   -0.602095
H     -5.906584    0.302297   -1.121182
H     -6.119745   -0.844566    0.260861
H     -5.851056    0.902456    0.583904
H     -4.255563   -2.275383   -0.501290
H     -3.608459    1.898404    0.293857
H      0.535718    3.720533    0.782155
H      4.168870    1.519852    0.276997
H      5.859736   -2.438085    0.726705
H      5.532820   -2.132795   -1.023274
H      4.453062   -3.242157   -0.072048
H      2.745050    4.756049    1.085262
H     -2.344209   -3.736233   -0.759011
