19

C     -2.061698   -1.087663    0.595518
N     -1.145678    0.055490    0.449690
C     -1.544942    0.852865   -0.723888
C      0.249403   -0.420083    0.320231
C      1.234581    0.665014    0.769561
C      2.638923    0.140871    0.751467
O      3.159564   -0.298993    1.810207
O      3.362101    0.097036   -0.436852
H     -1.831557   -1.644486    1.529272
H     -1.981255   -1.781174   -0.271579
H     -3.111927   -0.733781    0.682034
H     -2.585243    1.223439   -0.598354
H     -1.488131    0.253864   -1.660298
H     -0.898944    1.748413   -0.827320
H      0.417379   -1.307873    0.973119
H      0.474424   -0.735005   -0.724892
H      0.975055    0.999589    1.797791
H      1.177731    1.546037    0.097717
H      2.960214    0.426442   -1.306470
