25

C      2.700794   -0.124389    0.040793
C      1.208887   -0.263577   -0.287144
C      0.460598    1.077197   -0.120511
C     -1.027985    0.867721   -0.462692
C     -1.603055   -0.323908    0.331669
C     -0.679192   -1.553188    0.166807
O      0.645697   -1.242541    0.568602
O     -1.156522   -2.597442    0.971424
N     -2.952044   -0.639819   -0.147607
O     -1.761514    2.030341   -0.173310
O      0.594552    1.536180    1.202534
O      3.309750    0.775289   -0.844232
H      2.833535    0.223843    1.089714
H      3.184873   -1.121867   -0.058407
H      1.144919   -0.593438   -1.351637
H      0.890899    1.820892   -0.832419
H     -1.114733    0.636796   -1.551656
H     -1.649594   -0.052784    1.412089
H     -0.699777   -1.890634   -0.898528
H     -0.609746   -3.395732    0.749251
H     -3.350322   -1.398386    0.452032
H     -3.565655    0.191965    0.011798
H     -1.533708    2.694273   -0.875585
H      0.465557    2.520248    1.182155
H      4.263787    0.822959   -0.575140
