27

C      4.043953   -1.224081    0.048129
C      2.575821   -1.510093   -0.245148
O      1.757428   -0.418557    0.169637
C      1.658763    0.783873   -0.539710
O      2.272018    0.942467   -1.630522
C      0.772385    1.875268   -0.018373
C     -0.657961    1.780073   -0.570579
C     -1.330235    0.512034   -0.119731
O     -1.285267   -0.520279   -0.844461
O     -1.951572    0.477269    1.133681
C     -2.619859   -0.673427    1.646577
C     -3.973970   -0.855566    0.970806
O     -0.636844    1.859945   -1.973192
H      4.180326   -1.015987    1.130435
H      4.392894   -0.348496   -0.537942
H      4.658597   -2.106221   -0.229118
H      2.269258   -2.415629    0.319531
H      2.430276   -1.713756   -1.328365
H      1.205139    2.860957   -0.296447
H      0.748336    1.827634    1.092237
H     -1.232162    2.643826   -0.162218
H     -1.992507   -1.580530    1.506133
H     -2.781315   -0.531876    2.735945
H     -3.843083   -1.044591   -0.115033
H     -4.592353    0.056304    1.110007
H     -4.502692   -1.721455    1.421930
H     -1.565372    2.060895   -2.262791
