14

C     -1.934152   -0.034155    0.023836
C     -1.218010   -1.213353    0.241598
C      0.180315   -1.198395    0.226217
C      0.876856    0.002310   -0.008296
C      0.144858    1.183811   -0.226357
C     -1.253439    1.162877   -0.209842
C      2.355978    0.025762   -0.026020
O      3.015913   -1.029624    0.168705
O      3.038899    1.214245   -0.258093
H     -3.016349   -0.047954    0.036161
H     -1.746627   -2.140392    0.422579
H      0.714597   -2.124565    0.397497
H      0.650754    2.123398   -0.409525
H     -1.809591    2.076034   -0.378460
