22

C     -3.751821    1.133102    0.107875
C     -3.168475   -0.154402   -0.462016
C     -1.791474   -0.389535    0.071279
O     -1.641182   -1.046686    1.137062
O     -0.699524    0.214011   -0.566092
C      0.648543   -0.102524   -0.341104
C      1.064530   -1.387856    0.055883
C      2.421740   -1.657072    0.256480
C      3.373532   -0.654579    0.054143
C      2.970543    0.621947   -0.359586
C      1.611951    0.890532   -0.560968
O      3.909660    1.628254   -0.573948
H     -3.116649    2.001155   -0.171047
H     -3.819960    1.068788    1.215054
H     -4.771296    1.292451   -0.302246
H     -3.126214   -0.081449   -1.569863
H     -3.826940   -1.009519   -0.195923
H      0.351103   -2.190379    0.182057
H      2.736870   -2.646900    0.560719
H      4.422349   -0.872315    0.210746
H      1.302219    1.877375   -0.881832
H      4.900493    1.465603   -0.437241
