29

C      4.570672   -0.295544   -0.238957
C      3.691469   -1.545105   -0.200191
C      2.192054   -1.215592   -0.249157
C      1.687339   -0.567652    1.046409
O      0.267711   -0.434109    1.015031
C     -0.399879    0.531714    0.251277
O      0.256300    1.399417   -0.387379
C     -1.879110    0.565643    0.254893
C     -2.550442    0.173820    1.427473
C     -3.941451    0.254680    1.513647
C     -4.682619    0.725426    0.431333
C     -4.036956    1.099072   -0.747964
C     -2.639783    1.009109   -0.859175
N     -2.031135    1.314158   -2.121581
H      5.636707   -0.597023   -0.313935
H      4.445282    0.302270    0.687374
H      4.317943    0.330527   -1.120989
H      3.924491   -2.136976    0.711552
H      3.941451   -2.174255   -1.081845
H      1.981277   -0.551996   -1.115347
H      1.632168   -2.162708   -0.408906
H      2.154634    0.427931    1.203539
H      1.954958   -1.214692    1.908595
H     -1.995317   -0.171641    2.291177
H     -4.444691   -0.039616    2.425665
H     -5.760714    0.791088    0.502062
H     -4.629875    1.438971   -1.587965
H     -1.069245    0.993392   -2.364440
H     -2.593242    1.749691   -2.886688
