27

C      3.566255   -0.168993   -0.062969
C      2.064001   -0.483830   -0.083065
C      1.420434   -0.109389    1.266677
C     -0.101804   -0.314789    1.239970
C     -0.748310    0.530484    0.122391
C     -0.162442    0.170953   -1.256258
C      1.340507    0.222368   -1.212721
O      1.955852    0.754893   -2.125352
C     -2.264032    0.386272    0.128992
C     -3.042858    1.461253    0.330365
C     -2.925979   -0.951437   -0.092640
H      4.040798   -0.504238   -1.009905
H      4.058057   -0.705955    0.776086
H      3.736518    0.922313    0.060654
H      1.946522   -1.579350   -0.236708
H      1.853692   -0.741070    2.072661
H      1.640748    0.953658    1.511962
H     -0.522043   -0.011548    2.223753
H     -0.317424   -1.395049    1.093328
H     -0.481436    1.594440    0.321940
H     -0.546703    0.884312   -2.018466
H     -0.463689   -0.853925   -1.559153
H     -2.615596    2.446020    0.492462
H     -4.125190    1.369797    0.335529
H     -3.540739   -1.216616    0.793414
H     -3.581270   -0.901678   -0.987913
H     -2.183868   -1.758897   -0.252745
