38

C      7.286955    0.149057    0.726268
C      6.551641    1.269136   -0.000756
O      5.323762    0.793102   -0.548806
C      4.183064    0.538810    0.220763
O      4.175614    0.799078    1.455404
N      3.008916    0.026872   -0.423402
C      1.844701   -0.450597    0.272947
C      0.578533   -0.282399   -0.309594
C     -0.577227   -0.760531    0.336606
C     -0.454686   -1.392356    1.578713
C      0.803423   -1.585743    2.152822
C      1.950587   -1.128414    1.500352
O     -1.861619   -0.590573   -0.200418
C     -2.172847   -0.534216   -1.566411
O     -1.337461   -0.911334   -2.431966
N     -3.455806   -0.060179   -1.995350
C     -4.551511    0.199732   -1.102723
C     -5.431568    1.257145   -1.382232
C     -6.516687    1.516496   -0.539211
C     -6.740856    0.712197    0.580972
C     -5.885325   -0.357990    0.854624
C     -4.798619   -0.620275    0.014316
H      7.466228   -0.699162    0.032242
H      8.264253    0.523458    1.097145
H      6.690833   -0.208262    1.591689
H      7.191208    1.634665   -0.831556
H      6.364116    2.120067    0.689734
H      2.973786    0.082656   -1.466357
H      0.499405    0.257074   -1.243698
H     -1.338037   -1.750522    2.092269
H      0.890247   -2.098432    3.102148
H      2.916688   -1.321583    1.946826
H     -3.563853    0.201724   -3.001610
H     -5.268999    1.886434   -2.248300
H     -7.184941    2.339927   -0.755784
H     -7.582352    0.912525    1.231528
H     -6.069694   -0.990826    1.713163
H     -4.171874   -1.476763    0.223425
