28

C     -3.863895   -0.844101   -0.652476
C     -2.630681   -0.898560    0.268178
C     -1.356824   -0.622100   -0.560107
O     -0.215506   -0.730686    0.267657
C      0.953028   -0.549412   -0.502123
O      2.064761   -0.580662    0.368050
C      3.257019   -0.287262   -0.335541
C      3.508418    1.223520   -0.341039
C      4.092279    1.800939    0.889505
O      4.880083    1.528422   -0.248163
N     -2.568585   -2.237847    0.877650
O     -3.304071   -2.510541    1.849448
O     -1.962728   -3.275288    0.205059
N     -2.744597    0.126573    1.319903
O     -2.092546    0.006904    2.378560
O     -3.307865    1.350309    1.033111
H     -4.791503   -0.981471   -0.056537
H     -3.814252   -1.651037   -1.415372
H     -3.924883    0.131420   -1.181559
H     -1.303823   -1.349101   -1.403983
H     -1.424772    0.405618   -0.986271
H      0.911833    0.431698   -1.034486
H      1.041329   -1.379635   -1.242577
H      4.092088   -0.814537    0.175045
H      3.253496   -0.667502   -1.384032
H      2.971203    1.900185   -1.038633
H      4.331001    1.105624    1.722132
H      3.949992    2.892759    1.028599
