23

H      0.000000    0.000000    0.000000
H      0.000000    0.000000    0.000000
C      0.528493    0.098335   -1.178921
C      2.046332   -0.111767   -1.043835
C      2.381646   -1.507250   -0.615089
O      2.328568   -2.454324   -1.443150
O      2.721461   -1.766907    0.706629
C     -0.233536    0.007791    0.166701
C     -1.767914    0.030909   -0.065858
C     -2.538370   -0.192377    1.211338
O     -2.852302    0.776247    1.953109
O     -2.859775   -1.485337    1.605023
O     -2.190552    1.201236   -0.725168
C      0.210909    1.078274    1.136080
O      0.368391    2.269505    0.756711
O      0.421936    0.754541    2.470528
H      0.127905   -0.661953   -1.885645
H      0.350343    1.093834   -1.641428
H      2.522922    0.081008   -2.029218
H      2.477620    0.616064   -0.324169
H      0.005561   -0.978455    0.622816
H     -2.015212   -0.822038   -0.735066
H     -2.034426    1.972664   -0.122067
