38

C     -2.677824   -2.297917   -0.897598
C     -2.034650   -1.085507   -0.224773
C     -3.050212    0.066446   -0.089547
C     -2.485108    1.270714    0.689271
C     -1.475157    2.108643   -0.121974
C     -0.356989    2.600118    0.769922
C      0.950545    2.322327    0.599461
C      1.508262    1.527459   -0.561153
C      3.024732    1.562683   -0.576777
C      3.751959    0.465613   -0.330373
C      3.087624   -0.866527   -0.107754
C      1.621412   -0.653747    0.331927
O      0.976051    0.208630   -0.588507
C      0.852962   -1.991531    0.402627
C     -0.283719   -1.927082    1.391684
O     -0.055316   -2.263393    2.583567
O     -1.566622   -1.456793    1.073947
O      3.174104   -1.650691   -1.272389
H     -3.050721   -2.024649   -1.907747
H     -1.928441   -3.109919   -1.007234
H     -3.524835   -2.677025   -0.286769
H     -1.207910   -0.742192   -0.869530
H     -3.386523    0.398207   -1.096587
H     -3.944862   -0.306260    0.456450
H     -3.333164    1.929924    0.977528
H     -2.038142    0.914462    1.643573
H     -1.094840    1.547780   -0.996304
H     -1.997483    2.995879   -0.539669
H     -0.638394    3.204448    1.627893
H      1.646678    2.716435    1.335637
H      1.185332    2.034596   -1.495083
H      3.530171    2.507959   -0.751507
H      4.835878    0.522968   -0.355382
H      3.631775   -1.391529    0.706687
H      1.630840   -0.200656    1.352316
H      1.541973   -2.799854    0.734028
H      0.486307   -2.289251   -0.602101
H      2.694307   -1.170766   -1.997762
