30

C     -2.468127    1.367023    1.366888
C     -1.295719    1.146268    0.451464
C     -0.668731    2.151809   -0.144995
C      0.379129    1.688876   -1.090359
C      0.519251    0.179604   -0.795173
C     -0.772429   -0.197726    0.014112
C     -1.805417   -0.861673   -0.920002
C     -0.520522   -1.121241    1.229428
C      1.843152   -0.150763   -0.093489
C      2.279038    0.585084    0.939405
C      2.671005   -1.309883   -0.514680
C      2.187405   -2.364800   -1.170727
H     -2.920969    0.404609    1.678847
H     -3.245005    1.963840    0.844123
H     -2.134564    1.915448    2.272552
H     -0.941120    3.194477   -0.012856
H      1.321218    2.261241   -0.951729
H      0.016016    1.850241   -2.128821
H      0.521699   -0.327290   -1.784859
H     -2.021957   -0.210422   -1.794817
H     -2.760659   -1.051506   -0.385039
H     -1.417401   -1.833263   -1.294193
H      0.069293   -0.602795    2.013882
H     -1.477654   -1.442838    1.691296
H      0.021437   -2.037496    0.914045
H      1.705952    1.420901    1.318301
H      3.208432    0.348521    1.443111
H      3.718708   -1.328893   -0.236541
H      1.141730   -2.454535   -1.429085
H      2.846808   -3.182819   -1.430090
