46

C     -4.941890   -0.033285    1.000201
C     -3.464469   -0.288798    0.887627
C     -2.887785   -1.354837    1.431902
C     -1.438313   -1.445331    1.116392
C     -1.119708   -0.070462    0.503551
C     -2.495967    0.543701    0.087087
C     -2.826815    0.396053   -1.413648
C     -2.570042    2.030068    0.492482
C     -0.024877   -0.077398   -0.562284
C      0.004668   -0.966744   -1.575827
C      1.173844   -0.968046   -2.518883
C      2.469135   -0.895249   -1.700259
C      2.503361    0.311175   -0.698778
C      1.089018    0.949218   -0.504606
C      3.236952   -0.061676    0.645816
C      4.673533   -0.541290    0.340931
C      3.358994    1.153703    1.600174
O      2.566160   -1.112447    1.301301
H     -5.504139   -0.909611    0.614422
H     -5.239960    0.858979    0.413652
H     -5.210785    0.133548    2.064233
H     -3.427982   -2.108580    1.996652
H     -0.850834   -1.621442    2.043439
H     -1.278702   -2.289392    0.416506
H     -0.731990    0.527630    1.360243
H     -3.830519    0.817475   -1.635374
H     -2.088760    0.944957   -2.036285
H     -2.840178   -0.672533   -1.714202
H     -2.470403    2.144789    1.593667
H     -1.749622    2.598001    0.003418
H     -3.535177    2.484017    0.183601
H     -0.754926   -1.731823   -1.686576
H      1.162792   -1.893375   -3.133737
H      1.106550   -0.091709   -3.199327
H      3.334389   -0.830935   -2.395497
H      2.558604   -1.859525   -1.153829
H      3.118483    1.103997   -1.182949
H      0.914499    1.657934   -1.344227
H      1.018649    1.573537    0.403550
H      4.674959   -1.471031   -0.263921
H      5.240487    0.240578   -0.209180
H      5.216918   -0.772551    1.282520
H      3.740463    2.043741    1.055302
H      2.390608    1.407507    2.076229
H      4.057446    0.929598    2.435075
H      1.673332   -0.782137    1.579418
