46

C     -4.952215    0.111814    1.149884
C     -3.726008    0.748123    0.556079
C     -3.515054    2.058213    0.607884
C     -2.202025    2.451222    0.034486
C     -1.708320    1.165347   -0.653874
C     -2.573982    0.002572   -0.066926
C     -3.062537   -0.932836   -1.191757
C     -1.858058   -0.823532    1.023277
C     -0.194557    0.951668   -0.627087
C      0.412910    0.412467   -1.701838
C      1.880633    0.097900   -1.652846
C      2.187710   -0.640323   -0.331620
C      1.705936    0.183345    0.905792
C      0.665151    1.282412    0.583479
C      3.673371   -1.144739   -0.243920
C      4.694962    0.008996   -0.315957
C      3.905504   -1.933002    1.064795
O      3.941025   -1.998703   -1.333117
H     -4.907519   -0.993223    1.073667
H     -5.855013    0.469671    0.612131
H     -5.033752    0.385484    2.222881
H     -4.203345    2.760317    1.068485
H     -2.335812    3.275326   -0.699501
H     -1.548793    2.804589    0.854818
H     -1.998725    1.303953   -1.722691
H     -2.193276   -1.369796   -1.728146
H     -3.686326   -0.376652   -1.924743
H     -3.669748   -1.768528   -0.784494
H     -2.536774   -1.601577    1.432985
H     -1.541526   -0.177462    1.867996
H     -0.970586   -1.342745    0.604329
H     -0.158582    0.125586   -2.580185
H      2.149484   -0.530700   -2.528465
H      2.445551    1.052077   -1.710131
H      1.550972   -1.556004   -0.349491
H      1.261781   -0.520790    1.643491
H      2.552190    0.673614    1.425350
H      1.205575    2.228423    0.362372
H      0.054827    1.459347    1.490652
H      4.635357    0.532444   -1.292165
H      5.727054   -0.393922   -0.228366
H      4.553349    0.748482    0.496782
H      3.849663   -1.269363    1.953212
H      4.910019   -2.408234    1.053281
H      3.146024   -2.736263    1.176491
H      3.323485   -2.774992   -1.278359
