22

C      2.433633   -0.200953   -1.069560
C      1.201362    0.511754   -0.583472
O      0.775903    1.464141   -1.220496
C      0.500466    0.080771    0.688824
C     -0.749993   -0.800282    0.422570
C     -1.837583   -0.157402   -0.486733
C     -2.415395    1.097680    0.110576
O     -2.308210    2.195562   -0.496785
O     -3.074854    1.052952    1.333161
O     -2.871128   -1.075138   -0.744299
O     -0.357792   -2.049445   -0.092587
O      0.146848    1.206524    1.450645
O      3.531700    0.668975   -1.055500
H      2.261514   -0.544930   -2.111012
H      2.649437   -1.102839   -0.453604
H      1.202717   -0.540173    1.293065
H     -1.216034   -0.999706    1.413088
H     -1.381706    0.093842   -1.467778
H     -3.256563   -1.351769    0.128508
H     -0.025142   -1.904269   -1.016484
H      0.990047    1.586004    1.813477
H      3.800773    0.768703   -0.104781
