29

C     -4.922272    0.321865   -0.312478
C     -4.218640   -0.704916    0.574386
C     -2.696646   -0.721274    0.368063
C     -2.012304    0.534951    0.921607
O     -0.594108    0.396875    0.858986
C      0.142156    0.512849   -0.327227
O     -0.440045    0.808557   -1.407398
C      1.605398    0.294856   -0.308848
C      2.258505   -0.036188    0.891447
C      3.641045   -0.243821    0.912191
C      4.391514   -0.124231   -0.264666
C      3.746823    0.205067   -1.463990
C      2.364435    0.413196   -1.487538
N      5.805464   -0.336919   -0.241907
H     -4.647311    1.354247   -0.012830
H     -4.655738    0.162204   -1.378912
H     -6.021742    0.211619   -0.203145
H     -4.458919   -0.503474    1.640959
H     -4.617424   -1.712066    0.324875
H     -2.465278   -0.837444   -0.712640
H     -2.282960   -1.607738    0.896351
H     -2.326709    1.441200    0.361110
H     -2.299807    0.670173    1.985899
H      1.702821   -0.135512    1.815406
H      4.127166   -0.498068    1.845760
H      4.315241    0.300429   -2.380676
H      1.891142    0.666436   -2.427988
H      6.294889   -0.582831    0.647404
H      6.373303   -0.250042   -1.114199
