44

C     -4.918755    1.362692   -0.108019
C     -3.977166    0.823859   -1.143440
C     -2.714218    0.446285   -0.869113
C     -1.794735   -0.085985   -1.938566
N     -0.428398   -0.239081   -1.381592
C      0.080369    1.060649   -0.899572
C     -0.836070    1.497324    0.327551
C     -2.061077    0.488777    0.490377
C     -1.549306   -0.990399    0.773525
C     -0.327122   -1.181533   -0.209098
C      1.135543   -1.731428   -0.215415
C      2.063919   -0.499180   -0.384788
C      1.561086    0.804323   -0.590012
N      2.551477    1.720291   -0.537739
C      3.673330    1.011736   -0.283409
C      4.961883    1.515180   -0.109896
C      5.992949    0.603263    0.183816
C      5.718290   -0.777823    0.302890
C      4.410205   -1.263829    0.125767
C      3.412704   -0.340341   -0.176383
C     -2.603350   -2.096256    0.559643
O     -3.732480   -1.838086    1.348234
H     -5.098353    0.600198    0.678514
H     -5.889763    1.615327   -0.582792
H     -4.497370    2.283401    0.347723
H     -4.339952    0.743015   -2.164469
H     -1.769348    0.620552   -2.797167
H     -2.158841   -1.060646   -2.324655
H      0.020312    1.821061   -1.709796
H     -0.247640    1.530198    1.270324
H     -1.225650    2.523124    0.149102
H     -2.740148    0.829006    1.299659
H     -1.344910   -1.070868    1.888121
H      0.099924   -0.674247    0.678463
H      1.395442   -2.319107    0.699614
H      1.265738   -2.397751   -1.093730
H      2.465359    2.753169   -0.665109
H      5.163607    2.575373   -0.191881
H      7.003572    0.963702    0.324855
H      6.519949   -1.466978    0.534312
H      4.189282   -2.319351    0.218711
H     -2.903496   -2.189478   -0.504048
H     -2.158738   -3.070376    0.863922
H     -4.368055   -2.579762    1.172616
