47

C      5.205453    0.980129   -0.980217
C      4.561451   -0.026439    0.001521
C      4.812815   -1.469873   -0.498278
C      5.260438    0.128248    1.372241
N      3.105527    0.240168    0.183400
C      2.308648    0.250619   -1.064133
C      0.782302    0.309025   -0.809883
C      0.225409   -0.973641   -0.154480
O     -1.190203   -1.054798   -0.331901
C     -2.163596   -0.353829    0.402913
C     -1.881620    0.225126    1.654955
C     -2.877578    0.892147    2.366781
C     -4.169616    0.981209    1.853272
C     -4.481627    0.402413    0.613185
C     -3.468555   -0.252792   -0.126906
C     -3.799214   -0.912395   -1.450718
C     -4.981541   -0.232155   -2.150170
C     -6.202974   -0.177198   -1.231081
C     -5.859104    0.487262    0.069923
O     -6.767453    1.076120    0.716422
O      0.426622    1.463506   -0.091251
H      4.848054    0.816047   -2.018499
H      4.965073    2.022829   -0.681005
H      6.310941    0.864410   -0.991172
H      5.895583   -1.716925   -0.451042
H      4.261882   -2.202641    0.129302
H      4.501726   -1.601059   -1.554623
H      4.831877   -0.583711    2.110244
H      6.351304   -0.070182    1.290856
H      5.126097    1.158777    1.766128
H      2.996870    1.175497    0.641431
H      2.717833   -0.477746    0.837627
H      2.515240   -0.648315   -1.679260
H      2.576113    1.142233   -1.672348
H      0.304783    0.388820   -1.811327
H      0.501405   -1.059170    0.915409
H      0.670666   -1.853593   -0.665328
H     -0.903570    0.150841    2.104273
H     -2.649154    1.332703    3.328856
H     -4.926577    1.496822    2.430929
H     -2.925837   -0.866881   -2.136586
H     -4.039774   -1.982109   -1.268588
H     -4.692989    0.800096   -2.448962
H     -5.239519   -0.797040   -3.071847
H     -7.015474    0.386117   -1.739065
H     -6.566092   -1.207416   -1.026441
H      0.737957    1.348746    0.842988
