44

C     -4.327407    3.393244    0.274417
C     -3.332898    2.273386    0.194480
C     -3.290686    1.444945   -0.937590
C     -2.389208    0.378242   -0.997128
C     -1.525045    0.123839    0.077329
C     -1.585396    0.933966    1.220899
C     -2.486337    2.001030    1.280182
C     -0.583725   -1.018193    0.015868
C      0.736847   -0.804496   -0.158782
C      1.335564    0.573087   -0.334167
N      2.794069    0.510082   -0.572196
C      3.552893    0.070971    0.609788
C      4.928341    0.723871    0.530966
C      4.809488    1.806594   -0.529174
C      3.339757    1.829040   -0.913763
C     -1.114385   -2.409323    0.111118
C     -2.423793   -2.664077    0.563425
C     -2.885840   -3.979734    0.635349
C     -2.051044   -5.032229    0.261696
C     -0.758023   -4.751774   -0.179595
N     -0.325065   -3.464712   -0.243869
H     -4.534890    3.805753   -0.735946
H     -5.274426    3.015149    0.712859
H     -3.938234    4.218207    0.908480
H     -3.955482    1.624479   -1.773511
H     -2.364421   -0.250476   -1.878790
H     -0.939647    0.733991    2.067187
H     -2.525130    2.613123    2.172809
H      1.410062   -1.651657   -0.204117
H      0.841335    1.053815   -1.208586
H      1.115783    1.192676    0.563585
H      2.990869   -0.142862   -1.369871
H      3.056114    0.393319    1.553833
H      3.650943   -1.037413    0.627288
H      5.211024    1.161751    1.513438
H      5.696022   -0.023544    0.232465
H      5.136832    2.795041   -0.139018
H      5.426686    1.539413   -1.415180
H      2.832525    2.636043   -0.334808
H      3.218242    2.041359   -1.999734
H     -3.082870   -1.861269    0.867255
H     -3.890512   -4.182950    0.983034
H     -2.401627   -6.054783    0.315186
H     -0.097302   -5.556927   -0.471753
