43

C     -4.328512   -0.872652   -0.024840
C     -2.853801   -0.478968    0.053752
C     -2.547613    0.509221    1.190400
C     -1.219088    1.086339    0.682836
C     -1.655042    1.504396   -0.725881
C     -2.322253    0.217310   -1.232704
C     -1.216701   -0.724475   -1.655627
C     -0.790948   -1.243640   -0.288023
C     -0.184338   -0.110352    0.645047
C      1.346418    0.264753    0.487461
C      1.622168    1.594493    1.195130
O      2.810343    1.988637    1.339461
C      0.554030    2.478243    1.703452
C     -0.741343    2.242916    1.505622
C      1.780938    0.412787   -0.985957
C      2.179250   -0.873499    1.190598
C      3.697720   -0.953097    0.898520
C      4.007294   -1.756528   -0.330611
O      3.683362   -2.973107   -0.390505
O      4.676577   -1.164900   -1.397442
O     -2.031971   -1.618702    0.272533
H     -4.958637    0.023443   -0.209268
H     -4.646092   -1.347402    0.927646
H     -4.482649   -1.596261   -0.853149
H     -3.335251    1.294118    1.273517
H     -2.448986   -0.001487    2.174361
H     -0.828635    1.864644   -1.365308
H     -2.408264    2.324693   -0.684320
H     -3.075192    0.397858   -2.031016
H     -1.642106   -1.558785   -2.256875
H     -0.426915   -0.241586   -2.258750
H     -0.124568   -2.125931   -0.377835
H     -0.243147   -0.540474    1.673459
H      0.838338    3.363888    2.258829
H     -1.465419    2.953616    1.886165
H      1.695860   -0.554002   -1.524018
H      2.836971    0.744395   -1.057743
H      1.202663    1.192900   -1.508568
H      2.061869   -0.754355    2.291436
H      1.735242   -1.866478    0.964850
H      4.158082    0.050023    0.815806
H      4.194386   -1.456215    1.756163
H      4.895964   -1.695776   -2.231756
