27

C      1.288995   -0.322033   -1.219508
C      0.095480   -1.239294   -0.890696
C     -0.883920   -0.699611    0.183780
C     -1.525390    0.661497   -0.197013
C     -2.381660    1.181479    0.923725
O     -3.616996    0.930813    0.954548
O     -1.796040    1.902626    1.959700
O     -2.298769    0.546072   -1.365765
C     -1.945411   -1.740045    0.467986
O     -2.621872   -2.231586   -0.474723
O     -2.211267   -2.144070    1.773934
C      2.179725   -0.032197   -0.004663
C      3.419650    0.689996   -0.427503
O      4.463232    0.042382   -0.709376
O      3.405737    2.075707   -0.551599
H      0.936160    0.629330   -1.670234
H      1.899316   -0.835660   -1.995220
H     -0.458104   -1.434245   -1.835075
H      0.497204   -2.219067   -0.548382
H     -0.305431   -0.553823    1.120968
H     -0.724333    1.420423   -0.346609
H     -2.352583    2.244951    2.733766
H     -1.686938    0.682933   -2.135316
H     -1.704577   -1.757181    2.560969
H      2.458819   -0.983403    0.499084
H      1.636920    0.605457    0.724231
H      4.232052    2.578544   -0.852442
