39

C      0.009972   -1.526500   -1.044349
N      0.005133   -1.031781    0.365051
C     -1.013167   -1.779627    1.156803
C     -2.435295   -1.621558    0.604040
C     -2.752198   -0.200934    0.228638
C     -4.087807    0.129684   -0.051733
C     -4.434176    1.429213   -0.417147
C     -3.452066    2.412576   -0.501857
C     -2.117925    2.097173   -0.237211
C     -1.736541    0.777045    0.092384
C     -0.284696    0.437703    0.457143
C      0.747837    1.273701   -0.347388
C      2.164172    0.798017   -0.159662
C      3.220562    1.588449   -0.641102
C      4.542519    1.155627   -0.513717
C      4.820984   -0.071460    0.090039
C      3.777782   -0.871289    0.562195
C      2.444217   -0.452920    0.424616
C      1.334026   -1.310786    0.984152
H      0.896875   -1.172643   -1.610756
H      0.031489   -2.638619   -1.076843
H     -0.883254   -1.181887   -1.606761
H     -1.017652   -1.425806    2.214381
H     -0.771451   -2.867171    1.187773
H     -2.566440   -2.269730   -0.288958
H     -3.155662   -1.972599    1.375121
H     -4.864046   -0.622675    0.018988
H     -5.467254    1.676414   -0.624998
H     -3.725613    3.426000   -0.766297
H     -1.396676    2.898425   -0.288332
H     -0.172285    0.755378    1.520877
H      0.709293    2.331125   -0.010079
H      0.500295    1.245283   -1.430782
H      3.018496    2.541031   -1.115456
H      5.351619    1.772487   -0.882943
H      5.846161   -0.402791    0.193591
H      4.008925   -1.817771    1.035215
H      1.303462   -1.121144    2.081782
H      1.600384   -2.385639    0.853296
