50

C      7.147501   -1.696155   -0.356230
C      7.161075   -0.665912    0.767852
O      6.426150    0.498806    0.396395
C      5.026272    0.612167    0.374542
C      4.169182   -0.418077    0.807325
C      2.782841   -0.242774    0.768580
C      2.224208    0.960876    0.306933
C      3.084240    1.985793   -0.128817
C      4.470199    1.809364   -0.092036
C      0.750765    1.117318    0.261674
C      0.140865    2.360251    0.467745
C     -1.248016    2.453264    0.427830
O     -1.785692    3.577204    0.622761
C     -2.019951    1.298108    0.172907
C     -1.333662    0.076197   -0.036705
O     -0.004292    0.047251    0.030077
C     -2.053551   -1.115261   -0.294697
C     -3.469571   -1.076403   -0.329144
C     -4.141062    0.139169   -0.144391
C     -3.430772    1.317149    0.152057
O     -4.119736    2.500102    0.441818
C     -4.939649    2.636201    1.597709
O     -5.534596    0.146019   -0.281843
C     -6.208280    0.962451   -1.236701
O     -4.278606   -2.204494   -0.575127
C     -3.838562   -3.516875   -0.907016
O     -1.402851   -2.342415   -0.511865
C     -0.099424   -2.506209   -1.069471
H      6.131390   -2.116731   -0.492028
H      7.837790   -2.527002   -0.104943
H      7.484766   -1.227261   -1.305845
H      6.769559   -1.099692    1.713786
H      8.213975   -0.365356    0.953127
H      4.558027   -1.353495    1.177633
H      2.147593   -1.041013    1.122111
H      2.689756    2.916407   -0.512643
H      5.117678    2.608992   -0.431797
H      0.729766    3.242742    0.685836
H     -5.379794    3.654797    1.612736
H     -4.324868    2.495660    2.511970
H     -5.763113    1.894315    1.590524
H     -7.276582    0.669722   -1.271708
H     -6.149775    2.032589   -0.960125
H     -5.764758    0.814223   -2.243431
H     -4.727027   -4.154445   -1.099239
H     -3.273477   -3.957926   -0.061427
H     -3.221949   -3.496501   -1.830357
H      0.028233   -1.847015   -1.953384
H      0.019214   -3.556661   -1.397172
H      0.678570   -2.299462   -0.308085
