46

C     -7.126933    0.790133    1.878662
C     -5.956920    0.300368    1.078887
C     -4.783020    0.079330    1.690222
C     -3.577681   -0.449890    0.956217
C     -2.232093   -0.039962    1.575768
C     -2.686022    0.575033    0.239383
C     -3.086555    2.060317    0.291532
C     -2.052888    0.077543   -1.071490
C     -1.182364   -1.109567    1.515896
O     -1.441785   -2.266549    1.946490
O      0.086541   -0.803456    1.017737
C      1.090913   -1.794096    0.827653
C      2.324421   -1.155938    0.247989
C      3.471300   -0.953223    1.041188
C      4.616639   -0.370313    0.488368
C      4.622723    0.049663   -0.855374
C      3.476320   -0.154237   -1.647137
C      2.333243   -0.743416   -1.096579
F      1.242464   -0.941747   -1.883832
F      3.469649    0.201276   -2.957255
C      5.863786    0.647498   -1.462387
O      6.586472   -0.376140   -2.116672
C      7.786363    0.154791   -2.634077
F      5.724069   -0.226265    1.263548
F      3.490982   -1.334641    2.344295
C     -6.123693    0.063417   -0.340716
N     -6.252931   -0.122078   -1.477788
H     -7.404870    0.021806    2.635216
H     -8.008492    0.971859    1.224493
H     -6.867653    1.739919    2.397098
H     -4.702051    0.242366    2.762289
H     -3.628121   -1.474721    0.520080
H     -2.280666    0.607279    2.478338
H     -3.944531    2.236567   -0.390800
H     -2.233432    2.685057   -0.049343
H     -3.367226    2.391157    1.317189
H     -2.717019    0.335631   -1.925092
H     -1.898994   -1.025562   -1.076454
H     -1.070413    0.576734   -1.218522
H      0.716090   -2.574374    0.132427
H      1.313372   -2.288574    1.797544
H      6.478632    1.126022   -0.661381
H      5.569576    1.443895   -2.185968
H      8.318645   -0.652016   -3.185231
H      7.589001    0.978001   -3.359093
H      8.455151    0.501102   -1.812749
