34

C     -4.809811    0.650960   -0.728786
C     -3.851953    0.724235    0.460338
C     -2.648371   -0.220327    0.315753
C     -1.627551    0.281288   -0.719656
C     -0.451013   -0.691776   -0.917663
C      0.427697   -0.918373    0.328879
C      1.029609    0.358195    0.949112
C      1.875905    1.214007   -0.014732
C      3.112226    0.494462   -0.574892
C      4.087471    0.139607    0.515962
C      4.454952   -1.113043    0.792021
O      3.956390   -2.193669    0.071356
H     -5.713335    1.258705   -0.511371
H     -5.126478   -0.398214   -0.909568
H     -4.335020    1.057580   -1.645118
H     -3.503948    1.771379    0.596037
H     -4.414801    0.437171    1.375059
H     -2.998699   -1.240363    0.044672
H     -2.156009   -0.283587    1.308959
H     -1.253552    1.286039   -0.431234
H     -2.128944    0.391858   -1.703740
H     -0.852710   -1.675346   -1.245458
H      0.183363   -0.322340   -1.751118
H     -0.166289   -1.443172    1.106454
H      1.247134   -1.616443    0.059247
H      0.211783    0.987032    1.360090
H      1.655067    0.063684    1.819128
H      1.246798    1.566138   -0.858813
H      2.208416    2.126191    0.527725
H      3.627497    1.183694   -1.277240
H      2.804363   -0.389015   -1.171951
H      4.506191    0.944271    1.108198
H      5.158148   -1.293630    1.595630
H      4.245474   -3.137196    0.297622
