17

C      0.067317   -0.574685    0.815231
N      0.890911   -1.556718    0.997145
C      2.030254   -1.225366    0.220865
O      3.071356   -1.931400    0.183828
N      1.868522   -0.031910   -0.526909
C      0.590869    0.511231   -0.084689
C     -0.381545    0.733645   -1.207980
O      0.020221    1.159882   -2.323561
N     -1.787736    0.557420   -0.970939
C     -2.256149   -0.078673    0.229676
O     -3.491342   -0.151848    0.463738
N     -1.318730   -0.672366    1.135561
O      0.776454    1.709461    0.625408
H      2.594957    0.449567   -1.102347
H     -2.476380    0.871917   -1.691025
H     -1.645845   -1.307468    1.897745
H      1.446865    1.537311    1.338251
