42

C     -6.695687   -0.102495    1.598417
C     -6.007987   -0.248486    0.274014
O     -6.678222   -0.667210   -0.709004
N     -4.603526    0.049109    0.114331
C     -4.029350    0.149194   -1.237365
C     -2.877375    1.157519   -1.250517
C     -1.756662    0.782048   -0.250176
C     -2.274064   -0.040695    0.953286
C     -3.739592    0.259312    1.288789
N     -0.687181    0.040254   -0.928994
C      0.629710   -0.086676   -0.374572
O      0.906872    0.463462    0.726185
N      1.614514   -0.874770   -1.060828
C      3.010677   -0.901058   -0.717063
C      3.741449   -2.083507   -0.898886
C      5.104454   -2.128786   -0.593274
C      5.766267   -0.991174   -0.117722
C      5.040578    0.204806    0.044234
C      3.676039    0.249556   -0.259166
O      7.135853   -1.094624    0.174667
C      7.956134   -0.036032    0.665172
F      7.478749    0.411595    1.884030
F      7.982400    1.006971   -0.243274
F      9.242710   -0.509185    0.837477
H     -6.457338   -0.976045    2.240590
H     -7.796973   -0.051641    1.457695
H     -6.366478    0.831070    2.101606
H     -3.668357   -0.849967   -1.563126
H     -4.797174    0.498656   -1.961349
H     -2.474475    1.257018   -2.281985
H     -3.289852    2.152845   -0.972279
H     -1.334649    1.739001    0.131202
H     -1.643824    0.164774    1.845468
H     -2.189689   -1.127228    0.728377
H     -4.041052   -0.420482    2.114440
H     -3.841677    1.308918    1.639175
H     -0.882957   -0.425175   -1.844784
H      1.278370   -1.533018   -1.799800
H      3.250069   -2.975423   -1.266790
H      5.650336   -3.053925   -0.727136
H      5.518698    1.107697    0.397496
H      3.150263    1.189780   -0.158560
