35

C     -4.202320   -1.012133   -0.286165
C     -2.925600   -0.153412   -0.363975
C     -2.802469    0.387812   -1.805511
C     -3.087910    1.021753    0.626909
N     -1.786216   -1.044568   -0.021185
C     -0.534626   -0.460310    0.501980
C      0.343382    0.201906   -0.584981
C      1.812061   -0.008868   -0.277159
C      2.420300    0.668761    0.794032
C      3.773394    0.456494    1.095356
C      4.526402   -0.446134    0.325502
C      3.920120   -1.129131   -0.733523
C      2.571740   -0.917066   -1.032094
O      5.873964   -0.678195    0.598932
O      4.369756    1.136718    2.155987
O      0.073246    1.578925   -0.636327
H     -5.106035   -0.414394   -0.535790
H     -4.327436   -1.425808    0.737969
H     -4.142177   -1.864909   -0.996734
H     -1.970398    1.107432   -1.904885
H     -2.637960   -0.442256   -2.525505
H     -3.731344    0.922184   -2.101035
H     -3.111968    0.647990    1.673149
H     -2.263474    1.756475    0.523244
H     -4.035602    1.569251    0.432297
H     -1.574836   -1.707556   -0.804327
H      0.032251   -1.300992    0.960207
H     -0.723214    0.236168    1.344528
H      0.105624   -0.256005   -1.573399
H      1.841524    1.359314    1.395289
H      4.495926   -1.829042   -1.325762
H      2.121587   -1.462797   -1.851991
H      6.358111   -0.208987    1.354906
H      3.848412    1.792151    2.726513
H      0.475784    1.919227   -1.478168
