31

C      2.803155   -1.202866   -0.659560
C      2.208778    0.134375   -0.181768
C      0.682505    0.174010   -0.417604
C      0.076125    1.543752   -0.026304
C     -1.444210    1.511242   -0.264763
C     -2.078867    0.289147    0.427209
C     -1.317613   -1.002807    0.035053
O      0.071853   -0.871384    0.328621
C     -1.877318   -2.161110    0.832326
O     -1.229263   -2.636437    1.802763
O     -3.130177   -2.690453    0.531649
O     -1.517193   -1.271557   -1.334671
O     -2.048011    0.453541    1.825217
O     -2.042405    2.692120    0.205264
O      0.338899    1.833717    1.325209
O      2.819596    1.190272   -0.880463
O      4.185747   -1.238772   -0.429048
H      2.312579   -2.058046   -0.141280
H      2.624869   -1.321235   -1.749861
H      2.400314    0.233544    0.913084
H      0.526203    0.021434   -1.510772
H      0.501787    2.339048   -0.684064
H     -1.632172    1.420654   -1.361224
H     -3.136673    0.196281    0.081805
H     -3.690901   -2.321164   -0.226706
H     -0.940332   -2.045796   -1.569374
H     -2.836106    1.004890    2.071237
H     -1.790662    3.413173   -0.429289
H      1.181039    2.358490    1.353782
H      3.671114    1.393958   -0.412350
H      4.307340   -1.382023    0.545882
