42

C      4.308437   -1.216226    0.238219
C      5.248712   -0.012145    0.092425
C      4.505855    1.325028    0.278578
C      3.520948    1.573044   -0.828235
O      3.929588    2.060186   -1.917115
N      2.135740    1.235554   -0.649569
C      1.153775    1.317553   -1.696743
O      1.519828    1.442994   -2.897371
C     -0.292804    1.203028   -1.392094
C     -1.151657    0.578766   -2.311577
O     -2.451194    0.460540   -2.058097
C     -3.012565    0.925246   -0.945570
C     -2.227393    1.569192    0.018533
C     -0.859411    1.719568   -0.211248
O     -0.157012    2.337856    0.633109
C     -4.481806    0.724515   -0.725635
C     -4.719767   -0.551586    0.033432
C     -4.793293   -0.539729    1.436597
C     -4.978523   -1.732904    2.141937
C     -5.082162   -2.944892    1.453639
C     -4.996858   -2.966349    0.058777
C     -4.811610   -1.775554   -0.650557
C      6.365989   -0.118170    1.092961
O      7.559671   -0.207491    0.698600
O      6.085828   -0.116644    2.456905
H      3.545222   -1.211702   -0.568069
H      3.791790   -1.197176    1.221997
H      4.883964   -2.163059    0.153768
H      5.686943   -0.037265   -0.931154
H      3.983964    1.343079    1.260489
H      5.242003    2.159267    0.283513
H      1.841205    0.859800    0.279475
H     -0.763007    0.175862   -3.238139
H     -2.674990    1.953647    0.927644
H     -4.910128    1.590592   -0.174573
H     -5.000247    0.683645   -1.708268
H     -4.705274    0.391335    1.982726
H     -5.038173   -1.718331    3.222542
H     -5.224066   -3.867621    2.001236
H     -5.070557   -3.906292   -0.472757
H     -4.737156   -1.806647   -1.730609
H      6.830190   -0.187079    3.140275
