15

C     -0.474937    0.170484    0.767600
C     -1.773757    0.046555   -0.039486
C     -1.288666   -0.365968   -1.370490
O     -2.027872   -0.500489   -2.380154
O      0.067299   -0.597748   -1.401873
C      0.647224   -0.414350   -0.122001
C      1.836832    0.499235   -0.204581
O      1.866523    1.424350   -1.058923
O      2.890063    0.367593    0.695458
H     -0.551458   -0.393976    1.722450
H     -0.290636    1.242278    1.005417
H     -2.433237   -0.740686    0.384592
H     -2.309117    1.018447   -0.099508
H      0.960168   -1.406559    0.270291
H      2.881572   -0.349167    1.411223
