43

C     -4.493923   -1.970997   -0.595022
C     -4.606211   -0.592261    0.066104
C     -3.231320   -0.124558    0.594333
C     -3.324150    1.052565    1.539842
O     -4.170310    1.961780    1.326370
N     -2.456436    1.173452    2.679217
C     -1.216789    0.466635    2.835409
O     -0.895151    0.047442    3.979554
C     -0.291798    0.246079    1.698100
C      0.417912   -0.960884    1.606018
N      1.260812   -1.190651    0.563119
C      1.447982   -0.268064   -0.423766
C      0.785274    0.964373   -0.354550
C     -0.081277    1.225610    0.708794
O     -0.652809    2.347152    0.776661
C      2.414505   -0.544845   -1.542281
C      3.798157   -0.103800   -1.151125
C      4.659125   -0.985156   -0.475580
C      5.931982   -0.561622   -0.080740
C      6.350234    0.744697   -0.348887
C      5.494928    1.630983   -1.009370
C      4.221263    1.211651   -1.406027
C     -5.199760    0.395059   -0.910240
O     -6.312565    0.927637   -0.657215
O     -4.546163    0.723888   -2.096284
H     -4.159884   -2.725241    0.149165
H     -3.763867   -1.952714   -1.432200
H     -5.483547   -2.290634   -0.986723
H     -5.295192   -0.700611    0.934453
H     -2.765985   -0.973695    1.139402
H     -2.559529    0.137187   -0.249728
H     -2.785138    1.759100    3.479684
H      0.287580   -1.727980    2.360151
H      1.770951   -2.101923    0.526422
H      0.949266    1.717952   -1.116068
H      2.412327   -1.630639   -1.781507
H      2.091911   -0.020260   -2.468584
H      4.344310   -1.997376   -0.254018
H      6.592944   -1.245267    0.436197
H      7.335231    1.071281   -0.041370
H      5.817597    2.644233   -1.211038
H      3.565028    1.911018   -1.909114
H     -3.657515    0.309399   -2.348025
