50

C     -3.523788    1.402681    0.987340
C     -2.866723    0.112977    0.432947
C     -3.555439   -0.210049   -0.945763
C     -2.877675    0.487703   -2.143431
C     -1.367534    0.155943   -2.290639
C     -0.730308   -0.424059   -0.986477
C     -1.320649    0.360102    0.209571
C     -0.318862    0.159891    1.369809
C      1.078790    0.116214    0.669100
C      0.794710   -0.112208   -0.867000
C      1.758035   -1.131740   -1.565522
C      3.213398   -1.082225   -1.029072
C      3.307250   -0.667825    0.470619
C      1.996774   -1.000233    1.191334
C      3.336723    0.833574    0.578734
C      4.414462    1.606320    0.393130
C      1.975623    1.371465    0.860071
O      4.390300   -1.271332    1.135238
C     -0.453199    1.199051    2.457811
O     -0.571314    2.421764    2.175461
O     -0.393611    0.811193    3.790326
C     -1.000090   -1.933241   -0.884795
O     -0.759047   -2.564491    0.177162
O     -1.440672   -2.654262   -1.990072
C     -3.130264   -1.000420    1.442872
O     -3.471374   -2.155876    1.073385
O     -2.980320   -0.757972    2.804371
H     -3.086580    1.697610    1.962099
H     -3.397391    2.252122    0.282873
H     -4.613566    1.249900    1.146508
H     -3.556154   -1.297013   -1.163963
H     -4.629986    0.076985   -0.925792
H     -3.001843    1.586422   -2.028122
H     -3.407168    0.201152   -3.077815
H     -0.859832    1.100745   -2.582729
H     -1.207939   -0.529849   -3.149852
H     -1.216712    1.436245   -0.075036
H     -0.504772   -0.824348    1.845343
H      0.976732    0.850547   -1.392736
H      1.759446   -0.947833   -2.661818
H      1.409704   -2.174360   -1.427483
H      3.665829   -2.089943   -1.159901
H      3.812853   -0.386482   -1.657030
H      1.632308   -2.024573    0.964824
H      2.120992   -0.913575    2.295642
H      5.379460    1.172390    0.155319
H      4.334907    2.686100    0.470111
H      1.705569    2.209149    0.181295
H      1.980911    1.737237    1.908312
H      5.198037   -1.141571    0.573442
