36

C     -3.789332   -1.814933   -2.032968
C     -4.237350   -0.669844   -2.728596
C     -3.976455    0.617793   -2.224859
C     -3.271527    0.717974   -1.026056
C     -2.838943   -0.394207   -0.349867
C     -3.076779   -1.683339   -0.826988
C     -2.174682    0.055025    0.774459
C     -2.224593    1.444526    0.711636
N     -2.903999    1.842981   -0.388139
C     -1.448549   -0.767002    1.794238
C     -0.093706   -1.140757    1.278607
O      0.106973   -2.308365    0.846225
N      0.954876   -0.162226    1.239893
C      2.287653   -0.466953    0.711918
C      3.048116    0.838272    0.405364
C      4.367225    0.582924   -0.336322
C      5.044932    1.877115   -0.658065
O      4.810127    2.461659   -1.748369
O      5.898936    2.463468    0.267494
C      3.039001   -1.304042    1.708971
O      3.581858   -2.382075    1.349239
O      3.154834   -0.883785    3.028776
H     -3.993024   -2.800168   -2.431702
H     -4.780715   -0.783611   -3.657374
H     -4.310196    1.501242   -2.753718
H     -2.726996   -2.555749   -0.290859
H     -1.776622    2.124864    1.424234
H     -3.088244    2.826334   -0.686962
H     -2.037413   -1.680705    2.025885
H     -1.339153   -0.188762    2.736468
H      0.753045    0.795097    1.609823
H      2.171642   -1.031330   -0.241231
H      2.401633    1.482297   -0.232019
H      3.249490    1.389636    1.351414
H      5.047725   -0.029220    0.293484
H      4.170214    0.025867   -1.278220
