16

C     -0.676309    0.034370   -0.214092
C      0.678824   -0.689513   -0.027943
C      1.689794   -0.213437   -1.035317
O      2.498999    0.707841   -0.746153
O      1.703592   -0.761150   -2.311861
O      1.161451   -0.498628    1.278612
C     -1.734030   -0.610985    0.643732
O     -1.762134   -0.409619    1.887055
O     -2.665027   -1.466772    0.068452
N     -0.581879    1.472746    0.078851
H     -0.990618   -0.086263   -1.276272
H      0.514022   -1.778885   -0.204331
H      1.858426   -1.189426    1.431575
H     -0.237726    1.637213    1.052754
H      0.066126    1.936098   -0.597843
H     -1.523512    1.916411   -0.027219
