23

C      3.159086   -0.615687   -0.716131
C      2.122666    0.086970   -0.271616
C      1.439173    0.984463    0.763873
C      0.691857    0.620568   -0.404506
C     -0.379149   -0.483365   -0.246121
C     -1.780388    0.110894    0.034373
C     -1.830850    0.760306    1.392093
O     -2.152495    0.074388    2.398059
O     -1.485048    2.098833    1.566681
O     -2.137628    1.050497   -0.948829
C     -0.423742   -1.350142   -1.481960
O     -0.313890   -0.836018   -2.627418
O     -0.638260   -2.721515   -1.373666
H      4.071446   -0.664511   -0.132335
H      3.090650   -1.141352   -1.662054
H      1.866107    2.008891    0.768541
H      1.230132    0.441510    1.709854
H      0.587936    1.387184   -1.202081
H     -0.112736   -1.147120    0.608728
H     -2.525594   -0.721343    0.042995
H     -1.191296    2.677904    0.789486
H     -2.528415    0.545214   -1.708668
H     -0.759560   -3.166567   -0.471899
