32

C      5.374847   -0.510059    0.805480
C      3.967000   -0.067029    0.534475
C      2.922590   -0.998447    0.534595
C      1.604045   -0.600969    0.246473
C      1.329131    0.749685   -0.060099
C      2.395821    1.679925   -0.077810
C      3.698457    1.266504    0.211670
O      2.181637    3.019949   -0.383712
C     -0.070524    1.161427   -0.361497
O     -0.319630    2.368284   -0.627624
C     -1.176993    0.160471   -0.349443
C     -0.881011   -1.187578   -0.042709
C      0.509314   -1.596821    0.261726
O      0.762570   -2.802609    0.536180
C     -1.910758   -2.143259   -0.026485
C     -3.224153   -1.778251   -0.309872
C     -3.526880   -0.450050   -0.614111
C     -2.516747    0.530664   -0.638375
O     -2.817407    1.869356   -0.944764
C     -4.117279    2.364204   -1.251274
O     -4.225380   -2.747147   -0.286446
H      5.850508   -0.829795   -0.145086
H      5.387131   -1.359884    1.520831
H      5.969395    0.317721    1.247552
H      3.142013   -2.035030    0.761361
H      4.503473    1.991216    0.184799
H     -1.698878   -3.179530    0.206838
H     -4.554280   -0.191936   -0.830653
H     -4.051974    3.453455   -1.450170
H     -4.800875    2.201222   -0.391465
H     -4.513587    1.861327   -2.158574
H     -5.191575   -2.517017   -0.487569
