48

C      6.263171   -0.749935   -1.890222
C      5.313657   -0.645227   -0.692073
C      3.859352   -0.416988   -1.159245
C      2.848068   -0.328532   -0.002704
C      2.974319    0.980417    0.797366
C      1.952977    1.094597    1.952099
C      0.518063    1.210090    1.435504
C      0.019961    2.459663    0.985527
C     -1.285134    2.561662    0.509056
C     -2.137166    1.452525    0.477329
C     -1.675110    0.202846    0.934520
C     -0.318587    0.066121    1.333448
O      0.231983   -1.194868    1.585165
C     -2.653931   -0.916626    1.036726
O     -2.434033   -1.879656    1.819683
C     -3.949331   -0.844572    0.312686
C     -4.375092    0.396117   -0.206592
C     -3.514197    1.590488   -0.055965
O     -3.947519    2.724920   -0.399926
C     -5.616152    0.490576   -0.860281
C     -6.429017   -0.637805   -1.006405
C     -6.006643   -1.867260   -0.501290
C     -4.774246   -1.982092    0.155371
O     -4.370212   -3.226659    0.639463
O     -7.658979   -0.547953   -1.654695
O      0.791766    3.626089    0.972699
O      2.092636    0.020560    2.849022
O      5.417608   -1.794593    0.111172
H      5.976786   -1.601100   -2.544419
H      6.234528    0.187787   -2.485248
H      7.302926   -0.908221   -1.533206
H      5.644116    0.227166   -0.090895
H      3.803607    0.511860   -1.768678
H      3.556680   -1.259906   -1.819022
H      2.963548   -1.204594    0.670761
H      1.832550   -0.378322   -0.449470
H      2.853077    1.842537    0.106842
H      3.990859    1.050309    1.237299
H      2.185441    2.016810    2.528978
H     -1.632137    3.525980    0.157728
H     -0.171480   -2.059276    1.251038
H     -5.954269    1.438015   -1.261490
H     -6.638962   -2.738130   -0.621629
H     -4.947092   -4.052981    0.532782
H     -7.995676    0.329417   -2.033865
H      1.770394    3.668888    1.218867
H      2.969612    0.129018    3.302637
H      5.117279   -2.569161   -0.433274
