38

C     -3.540135   -0.897865   -3.556682
C     -4.543342   -1.813034   -3.244799
C     -4.579073   -2.397787   -1.977066
C     -3.614820   -2.079801   -1.014410
C     -2.637595   -1.085158   -1.292510
C     -2.584497   -0.535549   -2.594033
C     -1.537625    0.447212   -2.913661
O     -1.464084    0.972967   -4.057593
C     -0.603320    0.848707   -1.858808
O     -0.035124    1.967341   -1.965004
C     -0.521048    0.046869   -0.599016
C     -1.661121   -0.610568   -0.257729
O     -1.997732   -0.740190    1.086103
C      0.661425    0.119957    0.366362
C      1.752848    0.905464    0.164410
C      2.649759    1.299168    1.297713
C      2.652638    0.522492    2.477865
C      3.557076    0.809369    3.512861
C      4.446075    1.875874    3.396373
C      4.414408    2.683911    2.257159
C      3.503080    2.431973    1.225931
O      3.451063    3.353550    0.177985
O      5.354252    2.128957    4.422350
C      1.714056   -0.603663    2.593015
O      1.721017   -1.355772    3.605224
C      0.783956   -0.861974    1.489649
O      0.208907   -1.982430    1.437016
O      2.154436    1.229464   -1.124415
O     -3.639783   -2.809247    0.176086
O     -5.493585   -2.145561   -4.207432
H     -3.516107   -0.463220   -4.548802
H     -5.333908   -3.140208   -1.750061
H      3.580806    0.201396    4.409038
H      5.083784    3.532515    2.181905
H      2.677888    3.419584   -0.469399
H      6.017865    2.892737    4.366194
H     -2.850696   -2.884677    0.802554
H     -6.231743   -2.812298   -4.014376
