31

C     -0.191489   -0.417275    1.524135
C     -1.732279   -0.320200    1.498318
C     -2.326429   -0.999240    0.230672
C     -1.340063   -1.021630   -0.972416
C     -0.409028    0.213766   -0.997781
C      0.424964    0.358132    0.320290
N      1.844982   -0.000969    0.125786
C      2.754834    0.789825   -0.386833
N      2.434798    2.099514   -0.879959
N      4.110913    0.339760   -0.472376
O      0.438827    0.138178   -2.117937
O     -2.031369   -1.173826   -2.189393
O     -3.531770   -0.373213   -0.134663
O     -2.124986    1.029758    1.554565
O      0.196155   -1.769603    1.512427
H      0.184402    0.055718    2.462524
H     -2.141040   -0.850112    2.390986
H     -2.542845   -2.065782    0.478405
H     -0.689418   -1.917354   -0.866519
H     -1.052566    1.123085   -1.082353
H      0.375978    1.426038    0.630206
H      2.159285   -0.947635    0.435839
H      1.457764    2.446706   -0.986782
H      3.198999    2.722137   -1.223532
H      4.846834    0.955342   -0.883896
H      4.389676   -0.606120   -0.128421
H     -0.063504    0.501917   -2.893220
H     -2.476946   -0.311418   -2.397907
H     -4.207262   -0.631771    0.545878
H     -1.967993    1.337341    2.485524
H      0.010578   -2.131069    2.418433
