34

C     -1.494613   -4.760955    1.268262
O     -2.618096   -3.888920    1.197013
C     -2.562733   -2.549922    0.777636
C     -3.751741   -1.798745    0.748740
C     -3.724163   -0.460220    0.347520
C     -2.523037    0.139116   -0.034261
C     -1.330239   -0.598140   -0.034424
C     -1.352934   -1.938580    0.390535
C     -0.065445    0.065797   -0.424421
C      0.896143   -0.570372   -1.231889
C      2.076252    0.108499   -1.550221
O      2.941332   -0.464671   -2.266970
C      2.275333    1.420288   -1.074002
C      3.438649    2.176919   -1.352503
C      3.557223    3.480673   -0.848457
C      2.538324    4.041086   -0.074665
C      1.386495    3.298014    0.204278
C      1.249650    1.996563   -0.287263
O      0.147793    1.309916   -0.004339
O      2.680864    5.338324    0.412902
O      4.473344    1.645320   -2.123249
O      0.675882   -1.847166   -1.741645
O     -4.971217   -2.364931    1.120063
H     -1.035828   -4.875903    0.263456
H     -0.747736   -4.363609    1.987599
H     -1.831246   -5.757276    1.620861
H     -4.639173    0.118365    0.332066
H     -2.526780    1.177604   -0.342674
H     -0.426262   -2.492505    0.443555
H      4.445734    4.062687   -1.059438
H      0.596130    3.731001    0.805069
H      1.960872    5.774396    0.977152
H      5.311219    2.176596   -2.329861
H     -5.049998   -3.329250    1.419757
