29

C      4.454373    0.600424   -0.289286
N      3.369073    1.037110    0.596088
C      2.039307    0.656095    0.087794
C      1.750337   -0.846689    0.275161
C      0.321972   -1.217853   -0.157157
C     -0.746043   -0.638729    0.741940
O     -0.494307   -0.465332    1.966440
C     -2.104887   -0.323552    0.233090
C     -2.605460   -0.905412   -0.946499
N     -3.856958   -0.602301   -1.388931
C     -4.663051    0.261244   -0.712094
O     -5.815979    0.522176   -1.148096
C     -4.213730    0.856882    0.467858
C     -2.935321    0.560596    0.940988
H      4.285283    0.954147   -1.329845
H      5.417863    1.025633    0.065896
H      4.552276   -0.505441   -0.281203
H      3.519529    0.643347    1.554286
H      3.408043    2.081004    0.665128
H      1.272190    1.240412    0.642338
H      1.938561    0.930488   -0.986513
H      2.453540   -1.435977   -0.349782
H      1.915149   -1.142448    1.334079
H      0.220694   -2.324131   -0.147707
H      0.173829   -0.870604   -1.202452
H     -2.012429   -1.615577   -1.507886
H     -4.203372   -1.050086   -2.267542
H     -4.847888    1.543904    1.014720
H     -2.592596    1.030670    1.854493
