40

C     -0.920770   -2.009283   -0.981785
C     -1.192944   -1.508616    0.456100
C     -2.724163   -1.418970    0.699427
C     -3.367561   -0.036144    0.452370
C     -2.539627    0.951867   -0.392285
C     -1.050307    0.942948   -0.078322
C     -0.272189    1.839996   -0.725205
C      1.222981    1.791672   -0.660255
C      1.674138    0.328917   -0.653880
C      1.114488   -0.354195    0.606394
C     -0.445085   -0.172449    0.795455
C     -0.663848    0.196744    2.286934
C      3.190434    0.200533   -0.742456
C      3.998476    0.772683    0.167167
C      3.815654   -0.581041   -1.869201
O     -3.045362    2.249496   -0.202353
H     -1.482970   -2.947230   -1.176666
H      0.149628   -2.254759   -1.128725
H     -1.223342   -1.257706   -1.738757
H     -0.805069   -2.302396    1.134433
H     -2.927127   -1.704535    1.755365
H     -3.259486   -2.180166    0.090144
H     -3.610740    0.435690    1.428304
H     -4.349798   -0.185772   -0.047443
H     -2.650285    0.667014   -1.464840
H     -0.723145    2.563439   -1.399682
H      1.556605    2.316062    0.260950
H      1.646385    2.320136   -1.541836
H      1.225126   -0.164937   -1.542921
H      1.397066   -1.429049    0.599953
H      1.661972    0.063959    1.480253
H     -0.254898   -0.599911    2.945539
H     -0.144223    1.149952    2.527202
H     -1.724595    0.336663    2.556867
H      5.077327    0.672908    0.091165
H      3.601405    1.347232    0.997035
H      4.472544    0.084725   -2.468105
H      3.049923   -1.014277   -2.545484
H      4.422625   -1.414298   -1.455910
H     -3.899244    2.303095   -0.706638
