27

C     -2.909601   -0.039752    0.002870
C     -1.430177   -0.446489    0.034002
C     -1.081128   -1.390438   -1.108599
C      0.412525   -1.211263   -1.355781
C      0.834408    0.119233   -0.698058
C     -0.473398    0.736336   -0.148222
C     -0.261728    1.548854    1.139898
O      0.539533    0.808701    2.054839
C      1.707994    0.168137    1.642681
C      1.923189   -0.116688    0.347704
C      3.229815   -0.670847   -0.084950
O      4.124440   -0.953756    0.756463
O      3.487656   -0.875773   -1.435299
O      0.378875    2.756793    0.825911
H     -3.150585    0.609769    0.869406
H     -3.549543   -0.945591    0.063689
H     -3.152982    0.506468   -0.933670
H     -1.216205   -0.962719    0.997693
H     -1.637386   -1.111500   -2.031889
H     -1.325175   -2.443111   -0.846041
H      0.954763   -2.081879   -0.923592
H      0.619828   -1.188084   -2.448215
H      1.249586    0.802562   -1.472477
H     -0.892169    1.414077   -0.928451
H     -1.242418    1.772236    1.614380
H      2.441726   -0.085189    2.397139
H      0.418155    3.279912    1.668565
