39

C     -3.281569   -1.580125   -2.809963
O     -2.396869   -0.911545   -1.917221
C     -2.755855   -0.444682   -0.642003
C     -4.064197   -0.626815   -0.127433
C     -4.338562   -0.156879    1.151543
C     -3.400912    0.463084    1.906703
C     -2.105518    0.670055    1.449522
C     -1.772519    0.212988    0.153978
C     -0.401810    0.436780   -0.366158
C     -0.213305    1.116071   -1.579132
O      1.007404    1.335373   -2.054473
C      2.106024    0.935936   -1.422745
C      3.358402    1.201742   -1.981551
C      4.527503    0.788079   -1.329833
C      4.451620    0.102277   -0.108986
C      3.189623   -0.167523    0.457232
C      2.013546    0.247040   -0.194278
C      0.735077   -0.004422    0.335132
O      0.605484   -0.633256    1.422215
O      5.648552   -0.293532    0.508875
C      5.725095   -0.994539    1.745954
O      5.774965    1.055784   -1.891433
O     -3.950520    0.821419    3.122529
C     -5.320767    0.397833    3.130882
O     -5.526642   -0.221776    1.853822
H     -2.734583   -1.830437   -3.741860
H     -4.136588   -0.919432   -3.066020
H     -3.649132   -2.521440   -2.349604
H     -4.842460   -1.119245   -0.693676
H     -1.382768    1.181488    2.072851
H     -1.065706    1.477009   -2.140535
H      3.423313    1.730877   -2.924327
H      3.121046   -0.696085    1.398559
H      5.207618   -1.973588    1.662852
H      5.270074   -0.388134    2.557407
H      6.790804   -1.176447    1.993947
H      5.865818    1.548993   -2.772015
H     -5.992195    1.274695    3.244023
H     -5.489491   -0.337621    3.945221
