38

C      4.229304   -0.647638   -1.389416
C      5.218575   -0.503041   -0.413440
C      4.878569   -0.032959    0.854100
C      3.551819    0.297304    1.162594
C      2.539285    0.155470    0.183550
C      2.893165   -0.322619   -1.102579
C      1.849599   -0.475195   -2.136317
O      2.133894   -0.898103   -3.290012
C      0.465669   -0.125575   -1.804307
O     -0.440562   -0.241219   -2.673517
C      0.144280    0.361615   -0.446913
C      1.111863    0.497956    0.483291
O      0.762500    0.962115    1.749752
C     -1.259631    0.714716   -0.125138
C     -2.237618   -0.271447    0.187036
C     -3.591365    0.123808    0.393525
C     -3.896390    1.504027    0.447621
C     -2.922662    2.455393    0.154101
C     -1.619166    2.071524   -0.152739
O     -0.667805    3.041524   -0.473173
O     -5.150607    1.959933    0.834763
C     -4.652784   -0.924307    0.598023
C     -4.324186   -2.198122    0.837011
C     -2.935377   -2.653900    0.769310
O     -2.654732   -3.856660    1.018524
C     -1.885946   -1.709702    0.376926
O     -0.706282   -2.131747    0.241352
O     -6.015099   -0.636073    0.493635
O      3.250068    0.764565    2.441731
O      6.545064   -0.824221   -0.693604
H      4.506369   -1.013581   -2.370412
H      5.651364    0.076362    1.604854
H     -3.182138    3.506739    0.175754
H     -0.899519    4.027758   -0.495727
H     -5.105276   -2.930454    1.004626
H     -6.374267    0.172586    0.006114
H      3.963618    0.871517    3.153388
H      6.826406   -1.168349   -1.604286
