17

C      0.884398   -0.498945    1.092442
C      0.165806    0.144869   -0.113191
C     -0.931935   -0.805570   -0.654082
O     -1.935592   -1.026274    0.302821
C      1.178263    0.384730   -1.218822
O      1.923428   -0.552934   -1.611699
O      1.271779    1.624969   -1.841117
N     -0.438622    1.423987    0.305913
H      1.290433   -1.498625    0.825536
H      0.186673   -0.623784    1.947621
H      1.725932    0.144371    1.429189
H     -1.405617   -0.349282   -1.550273
H     -0.485817   -1.773939   -0.983349
H     -1.662084   -1.820395    0.831762
H      0.302492    2.090582    0.625444
H     -1.105101    1.275801    1.098625
H     -0.964436    1.860441   -0.486819
