34

C      4.455312    1.061572    0.549983
C      5.087689    1.797640   -0.342388
O      5.147365    1.170038   -1.573831
C      4.503165   -0.094303   -1.528798
C      4.005624   -0.222386   -0.064254
C      2.524347   -0.276568   -0.225299
C      2.204282   -0.190234   -1.548656
O      3.329030   -0.083432   -2.340594
C      0.885409   -0.211409   -1.986027
C     -0.145254   -0.327445   -1.027765
C      0.177336   -0.428237    0.352717
C      1.538248   -0.399181    0.754554
O      1.906748   -0.480508    2.093629
C     -0.919325   -0.588383    1.341198
O     -0.653880   -1.022547    2.493814
C     -2.333276   -0.345784    0.937890
C     -2.644449   -0.312072   -0.443067
C     -1.561091   -0.350076   -1.454292
O     -1.845820   -0.383340   -2.683403
C     -3.985745   -0.232564   -0.856158
C     -5.015275   -0.169928    0.080668
C     -4.713074   -0.153523    1.443367
C     -3.386659   -0.203986    1.882915
O     -3.165620   -0.073041    3.256012
O     -6.337580   -0.109352   -0.354169
H      4.286685    1.357848    1.576996
H      5.508918    2.773688   -0.142777
H      5.193964   -0.912687   -1.823804
H      4.416258   -1.114428    0.455415
H      0.670718   -0.135817   -3.044409
H     -4.239188   -0.219767   -1.909138
H     -5.512784   -0.069576    2.168955
H     -2.272844    0.172291    3.659974
H     -7.109234   -0.058578    0.300743
