29

C      4.481862   -1.557175    0.286303
C      3.233920   -0.747995    0.087500
C      1.979497   -1.362275    0.150256
C      0.802891   -0.610140   -0.010091
C      0.882994    0.783912   -0.237287
C      2.156394    1.413970   -0.199146
C      3.312422    0.639104   -0.065200
O      2.321080    2.800196   -0.251066
C     -0.370065    1.522490   -0.559693
O     -0.316428    2.631269   -1.155848
C     -1.693161    0.904574   -0.283770
C     -1.761046   -0.474136    0.009993
C     -0.518857   -1.276513    0.071903
O     -0.586198   -2.529012    0.212141
C     -3.010490   -1.078243    0.238137
C     -4.185750   -0.321788    0.182836
C     -4.119614    1.042345   -0.100011
C     -2.887373    1.659454   -0.331727
O     -2.865559    3.024602   -0.598192
O     -5.424986   -0.916762    0.409529
H      4.717598   -1.612387    1.369584
H      4.347991   -2.586815   -0.108694
H      5.338901   -1.094501   -0.248071
H      1.924154   -2.430764    0.321722
H      4.278788    1.129219   -0.051947
H      1.575573    3.460530   -0.081661
H     -3.075897   -2.135645    0.462963
H     -5.030151    1.627411   -0.138482
H     -5.508489   -1.904926    0.618020
