35

C     -3.727269    0.191560    1.700176
N     -2.851809    0.016775    0.515198
C     -3.099820   -1.331201   -0.051015
C     -3.211852    1.050930   -0.484917
C     -1.433375    0.165307    0.965411
C     -0.369437    0.008392   -0.146506
C      1.045152    0.185100    0.426787
C      2.132890   -0.011367   -0.655220
C      3.567204    0.115146   -0.069604
C      3.827933   -0.954561    0.960718
O      4.058358   -0.637919    2.157527
O      3.813237   -2.296065    0.597657
N      4.578186    0.031508   -1.132278
O      1.946903    0.907850   -1.704369
H     -3.504943   -0.572512    2.478998
H     -4.802775    0.091930    1.429389
H     -3.587569    1.197457    2.156746
H     -2.587489   -1.466520   -1.027433
H     -4.185277   -1.492670   -0.238686
H     -2.749228   -2.127058    0.643355
H     -2.944581    2.068368   -0.121844
H     -2.700080    0.878799   -1.455765
H     -4.304583    1.038267   -0.697734
H     -1.211182   -0.586379    1.758061
H     -1.291305    1.166888    1.433776
H     -0.434774   -1.001387   -0.601597
H     -0.526026    0.772683   -0.934554
H      1.191841   -0.559946    1.238537
H      1.141822    1.200361    0.870964
H      2.018686   -1.033039   -1.080797
H      3.659483    1.110862    0.422559
H      4.484512    0.844523   -1.783072
H      4.471342   -0.857138   -1.674386
H      5.537240    0.065210   -0.715037
H      2.048586    1.819848   -1.324283
