40

C     -4.836143    0.542259    0.613455
C     -5.820257    0.231813   -0.323953
C     -5.452270   -0.215095   -1.594412
C     -4.100928   -0.355003   -1.936181
C     -3.093190   -0.042831   -0.990251
C     -3.472776    0.410069    0.293972
C     -2.441356    0.745989    1.301516
O     -2.789385    1.142671    2.448154
C     -1.004381    0.620621    0.972577
C     -0.030758    0.973563    1.929647
C      1.311124    0.841524    1.601727
C      1.716886    0.360522    0.391080
C      3.216667    0.305662    0.344289
C      3.605851    0.978071    1.708197
O      2.375585    1.186429    2.403185
O      4.495030    0.218295    2.487884
C      3.718079   -1.153683    0.168413
C      5.120420   -1.222693   -0.446009
O      6.064158   -0.631561    0.402145
C      0.783541    0.058960   -0.614624
C     -0.603034    0.164076   -0.312638
C     -1.646027   -0.182981   -1.318153
O     -1.301119   -0.606069   -2.454580
O      1.210212   -0.312211   -1.891432
O     -3.768334   -0.803136   -3.215016
O     -7.163682    0.371528    0.018011
H     -5.142460    0.887934    1.593159
H     -6.219178   -0.454942   -2.320350
H     -0.305656    1.350757    2.906510
H      3.564231    0.940419   -0.500928
H      4.070074    1.967629    1.507736
H      3.956296   -0.416853    3.027899
H      3.690617   -1.714986    1.125534
H      3.041744   -1.707640   -0.516085
H      5.387153   -2.290887   -0.608209
H      5.121422   -0.708253   -1.433314
H      6.937545   -0.706228   -0.063053
H      2.185160   -0.305786   -2.163624
H     -4.477354   -1.030209   -3.902614
H     -7.903503    0.154581   -0.639663
