34

C      1.024011   -2.125978    2.732758
O      1.144870   -1.128281    1.724405
C      0.117712   -0.651589    0.884409
C      0.451721    0.298716   -0.099708
O     -0.496308    0.837858   -0.855266
C     -1.774364    0.494505   -0.782036
C     -2.689345    1.148415   -1.611029
C     -4.043374    0.827285   -1.560737
C     -4.485548   -0.179033   -0.698753
C     -3.585739   -0.878348    0.114960
C     -2.206263   -0.509619    0.119958
C     -1.235991   -1.047510    1.000605
O     -1.576306   -1.839379    1.915877
O     -4.112066   -1.936705    0.861378
O     -4.942094    1.507247   -2.379870
C      1.845572    0.751550   -0.311419
C      2.910964   -0.165423   -0.373708
C      4.220954    0.281848   -0.599323
C      4.468808    1.648276   -0.776858
C      3.411785    2.561860   -0.737487
C      2.106059    2.116530   -0.513989
O      5.764441    2.100587   -0.997850
O      5.277823   -0.625116   -0.653146
H      0.353796   -1.773383    3.544461
H      2.025531   -2.316454    3.169703
H      0.649580   -3.074302    2.292905
H     -2.346425    1.919909   -2.289757
H     -5.535171   -0.445954   -0.683538
H     -3.568366   -2.703005    1.229571
H     -5.933083    1.295672   -2.369768
H      2.725675   -1.227232   -0.270585
H      3.602159    3.617851   -0.881452
H      1.299383    2.839057   -0.486803
H      5.129598   -1.619859   -0.528973
