25

C     -3.036674   -1.322168    0.151946
N     -1.812060   -0.763489   -0.426408
C     -1.635078    0.639312   -0.016747
C     -0.385774    1.268535   -0.674657
C      0.899794    0.591511   -0.237049
C      1.680871   -0.110203   -1.173611
C      2.860429   -0.747178   -0.776287
C      3.271566   -0.692517    0.557378
C      2.503214   -0.001634    1.497058
C      1.322807    0.637177    1.105342
O     -0.323242    2.650622   -0.421163
H     -3.928975   -0.759400   -0.200287
H     -2.994841   -1.291227    1.262980
H     -3.148966   -2.382364   -0.162088
H     -1.000631   -1.336817   -0.097427
H     -1.877458   -0.823401   -1.469578
H     -1.553442    0.705423    1.091471
H     -2.524146    1.234437   -0.326114
H     -0.503935    1.155458   -1.774728
H      1.377199   -0.168181   -2.211389
H      3.455476   -1.284860   -1.503158
H      4.184633   -1.186866    0.862974
H      2.821488    0.037716    2.530827
H      0.740180    1.161398    1.851499
H     -0.392435    2.788715    0.559217
