38

C     -2.633270    2.046985   -1.521404
C     -3.140704    2.589648   -0.319077
C     -3.177889    1.813600    0.853491
C     -2.705740    0.503804    0.782659
C     -2.216629   -0.025144   -0.385207
C     -2.158836    0.723333   -1.561903
C     -1.811105   -1.315314   -0.100006
C     -2.063388   -1.497038    1.256745
N     -2.619877   -0.384289    1.787546
C     -1.090055   -2.269404   -1.002258
C      0.385985   -2.119773   -0.807597
O      0.980936   -2.875358    0.006984
N      1.100626   -1.079542   -1.495185
C      2.414653   -0.577492   -1.076550
C      2.336116    0.074375    0.320400
C      1.447629    1.325677    0.312168
C      1.287432    1.871870    1.698442
O      0.208890    1.693651    2.321444
O      2.329476    2.554747    2.317152
C      3.439313   -1.679243   -1.139916
O      3.814639   -2.113293   -2.261893
O      3.938508   -2.260047    0.023666
H     -2.610535    2.651985   -2.417689
H     -3.501603    3.610006   -0.299803
H     -3.555521    2.224207    1.780265
H     -1.764024    0.306450   -2.477883
H     -1.828677   -2.385613    1.827777
H     -2.902158   -0.240558    2.782544
H     -1.400022   -3.310115   -0.764942
H     -1.355493   -2.073759   -2.063059
H      0.628116   -0.595999   -2.292070
H      2.738357    0.207811   -1.796137
H      1.942164   -0.656221    1.060212
H      3.359894    0.368032    0.643392
H      1.903802    2.105969   -0.333705
H      0.445777    1.083761   -0.101205
H      3.210777    2.707642    1.840926
H      4.622436   -3.005351   -0.019972
