18

C     -2.497828    0.260198    0.330331
C     -2.276072   -1.106725    0.149553
C     -0.981063   -1.586804   -0.060606
C      0.106163   -0.699039   -0.091579
C     -0.115674    0.688566    0.091538
C     -1.426322    1.157004    0.302290
C      0.987789    1.561941    0.056989
O      0.833927    2.804131    0.215518
C      2.270847    1.046782   -0.155679
C      2.442637   -0.327535   -0.331272
N      1.372060   -1.165822   -0.296740
O      3.374056    1.892630   -0.193280
H     -3.503467    0.626130    0.492753
H     -3.110162   -1.796160    0.172362
H     -0.826021   -2.649686   -0.199064
H     -1.624910    2.212134    0.445161
H      3.435031   -0.728744   -0.496089
H      1.539009   -2.189004   -0.432186
