46

C     -2.796835    4.155062   -1.177244
C     -2.271847    3.087571   -0.273769
O     -1.513508    3.400955    0.683437
N     -2.604196    1.714106   -0.521898
C     -2.024025    0.610009    0.253140
C     -0.697845    0.134963   -0.394032
C     -0.954592   -0.989389   -1.422770
C     -1.837512   -2.129247   -0.812083
O     -2.367065   -1.786950    0.460493
C     -3.045970   -0.547149    0.385803
O     -3.798287   -0.364432    1.554757
C     -1.054706   -3.445533   -0.684104
O      0.039588   -3.305044    0.181697
O     -1.593259   -0.439280   -2.546971
O      0.153872   -0.346783    0.636031
C      1.526947   -0.145315    0.343350
C      2.066780    1.038077    1.168661
C      3.593782    1.150838    0.983371
C      4.267516   -0.182851    1.194261
C      3.603892   -1.338973    1.022279
O      2.238169   -1.329952    0.703207
C      4.271014   -2.641782    1.193105
O      5.492737   -2.713917    1.493408
O      3.543283   -3.812255    1.020292
O      4.100962    2.088442    1.896279
O      1.427960    2.240382    0.817946
H     -3.885970    4.010133   -1.335398
H     -2.274822    4.100258   -2.155062
H     -2.630770    5.159274   -0.732486
H     -3.152786    1.494656   -1.384300
H     -1.787535    0.977250    1.278155
H     -0.249648    1.012290   -0.919423
H      0.035892   -1.388122   -1.745337
H     -2.684446   -2.351109   -1.502944
H     -3.752069   -0.542891   -0.481383
H     -4.491150   -1.075478    1.557388
H     -1.731573   -4.253456   -0.322755
H     -0.681338   -3.753159   -1.684332
H     -0.319290   -3.344386    1.106300
H     -1.502674   -1.101920   -3.281009
H      1.730533    0.038454   -0.739146
H      1.854272    0.837708    2.242673
H      3.808011    1.482051   -0.059808
H      5.326180   -0.189014    1.425559
H      4.993781    2.364235    1.559887
H      1.628546    2.421669   -0.137502
