24

C      2.337303   -1.898906   -0.315691
C      1.621759   -0.619211   -0.600627
O      1.296929   -0.340443   -1.786514
N      1.270947    0.258708    0.479105
C      0.438815    1.452614    0.297366
C     -0.997644    1.178638    0.770299
C     -1.648768    0.114473   -0.061846
C     -2.266918    0.291260   -1.279037
N     -2.647653   -0.909858   -1.758170
C     -2.241320   -1.789954   -0.817473
N     -1.625282   -1.196814    0.221869
C      1.029004    2.595641    1.072778
O      1.369361    3.653686    0.480696
O      1.200430    2.495755    2.448597
H      1.631406   -2.619841    0.146658
H      2.741756   -2.336422   -1.253105
H      3.179188   -1.711387    0.383075
H      1.505693   -0.041285    1.453070
H      0.409422    1.743529   -0.776946
H     -1.600696    2.110135    0.695006
H     -0.996031    0.859661    1.835655
H     -2.418385    1.230879   -1.793590
H     -2.385691   -2.859203   -0.897591
H     -1.203625   -1.661654    1.056414
