44

C     -2.957682    3.085387    1.388474
C     -2.158794    2.527670    0.256305
O     -1.830757    3.279996   -0.701118
N     -1.807528    1.136614    0.246567
C     -1.078865    0.506686   -0.861006
C     -2.068917   -0.227860   -1.797699
C     -2.259536   -1.699232   -1.364472
C     -0.879552   -2.420281   -1.215685
O      0.214478   -1.512779   -1.231315
C      0.002809   -0.459867   -0.309156
N      1.263212    0.259737   -0.115341
C      1.496199    1.130148    1.002036
O      0.619052    1.268200    1.897141
C      2.804446    1.858855    1.133042
C      3.863829    1.071926    1.935046
C      3.434627    0.866722    3.365749
O      2.694733   -0.102014    3.684088
O      3.818935    1.780568    4.338812
N      4.201228   -0.205300    1.290802
C     -0.658591   -3.445170   -2.336653
O     -1.557970   -4.515939   -2.206956
O     -2.940820   -1.751249   -0.136011
O     -1.574995   -0.185491   -3.113612
H     -2.866148    4.192220    1.419156
H     -2.588424    2.671816    2.350357
H     -4.025470    2.810849    1.257635
H     -2.186864    0.530084    1.008609
H     -0.566577    1.293562   -1.460149
H     -3.053571    0.297099   -1.769080
H     -2.884621   -2.210523   -2.133584
H     -0.854858   -2.990343   -0.257492
H     -0.305667   -0.883066    0.677129
H      2.037387    0.108096   -0.801191
H      3.202497    2.080687    0.119101
H      2.625726    2.839715    1.625452
H      4.784729    1.697705    1.954206
H      4.513155   -0.034634    0.307309
H      3.381248   -0.854142    1.282364
H      4.987731   -0.661244    1.808186
H      0.372775   -3.851054   -2.256548
H     -0.743573   -2.951501   -3.333927
H     -2.247013   -4.409288   -2.913305
H     -3.888003   -1.515212   -0.318687
H     -2.334004   -0.408150   -3.714581
