41

C      3.096180    0.007352   -1.843188
C      3.694121    0.924323   -0.742181
C      2.745995    1.030691    0.478826
O      1.410627    0.779152    0.086403
C      1.225963   -0.605813   -0.181205
C      2.241550   -1.131185   -1.243692
O      3.059695   -2.145392   -0.709027
O     -0.086389   -0.817128   -0.671677
C     -1.073950   -0.456444    0.285360
C     -2.070613   -1.617435    0.405619
C     -3.366521   -1.116385    1.048510
C     -3.994446   -0.000556    0.160836
O     -3.075061    0.631844   -0.725533
C     -1.785216    0.853161   -0.170116
O     -1.823105    1.831028    0.842564
C     -4.763719    1.024056    0.956770
O     -5.437778    0.678968    1.963623
O     -4.803151    2.348255    0.536216
O     -4.262252   -2.191607    1.179901
O     -1.498815   -2.634215    1.189032
C      2.822850    2.400120    1.086187
O      3.575513    2.614405    2.072683
O      2.103743    3.451684    0.530259
O      4.937762    0.426461   -0.316549
O      2.283840    0.769117   -2.702021
H      3.919203   -0.451855   -2.440671
H      3.846769    1.939500   -1.184017
H      3.058113    0.305234    1.268901
H      1.354154   -1.195313    0.759483
H      1.679138   -1.596100   -2.084621
H      3.554739   -1.765619    0.062175
H     -0.648772   -0.286245    1.305868
H     -2.299059   -2.005369   -0.617440
H     -3.113948   -0.718762    2.060906
H     -4.745424   -0.493505   -0.493837
H     -1.173872    1.294351   -0.985987
H     -2.177879    1.415095    1.667890
H     -4.941411   -1.923446    1.853336
H     -1.955232   -3.480892    0.943378
H      5.594380    0.638699   -1.030833
H      2.892278    1.269770   -3.306348
