33

C     -4.665422   -0.232144    1.899399
O     -4.757032   -0.258669    0.478667
C     -3.660354   -0.144012   -0.389844
C     -3.894118   -0.178821   -1.771614
C     -2.828940   -0.077323   -2.670954
C     -1.522505    0.067237   -2.199803
C     -1.270906    0.129199   -0.822098
C     -2.340107    0.000752    0.080965
C      0.119769    0.240675   -0.338363
C      0.511349    1.217673    0.612861
C      1.827302    1.232143    1.082025
C      2.752149    0.316375    0.581961
C      4.093265    0.276519    0.989793
C      4.959431   -0.670858    0.421284
C      4.507947   -1.577990   -0.549723
O      5.310657   -2.414981   -1.041347
C      3.174947   -1.563631   -0.977936
C      2.278947   -0.641826   -0.438840
O      1.011591   -0.620741   -0.826575
O      4.566116    1.169929    1.951209
O     -0.365731    2.198407    1.080920
O     -5.189761   -0.319456   -2.255336
H     -5.682438   -0.334387    2.330146
H     -4.231909    0.733274    2.236168
H     -4.041168   -1.077821    2.257626
H     -3.014378   -0.112791   -3.736999
H     -0.707598    0.140538   -2.909827
H     -2.134999    0.005689    1.143332
H      2.122169    1.972660    1.815669
H      5.995576   -0.701825    0.736372
H      2.836365   -2.269754   -1.726790
H      5.531610    1.157089    2.258562
H     -1.291824    2.338869    0.699086
