28

C     -3.802789    0.899072   -0.339513
N     -2.573247    0.754522   -1.126861
C     -1.420810    0.347503   -0.303107
C     -1.471621   -1.144989    0.074694
C     -0.235120   -1.595322    0.867208
C      1.008220   -1.623947    0.012757
O      1.122543   -2.564113   -0.820694
C      2.092366   -0.605005    0.108459
C      3.324177   -0.832773   -0.535191
N      4.323497    0.086279   -0.462064
C      4.177312    1.249543    0.222511
C      2.977053    1.528397    0.873299
C      1.934066    0.602531    0.816343
H     -4.604468    1.329482   -0.977735
H     -3.644815    1.583951    0.522148
H     -4.158269   -0.086825    0.026546
H     -2.731542    0.065889   -1.899245
H     -2.356286    1.682518   -1.560206
H     -0.492763    0.534182   -0.886844
H     -1.360828    0.970246    0.617451
H     -2.363457   -1.334235    0.707751
H     -1.570471   -1.764939   -0.843292
H     -0.107362   -0.978127    1.778976
H     -0.419670   -2.629480    1.231130
H      3.497444   -1.744203   -1.092443
H      4.993005    1.959196    0.258950
H      2.853773    2.457425    1.414935
H      1.010063    0.853222    1.314041
