30

C      2.699691    1.403316   -1.332202
C      1.883927    0.662226   -0.267146
C      2.767542   -0.296503    0.543005
O      3.750138    0.416232    1.244033
N      1.228890    1.624116    0.626385
C     -0.002936    1.377684    1.326939
O     -0.402594    2.226245    2.169052
C     -0.869673    0.177671    1.049566
C     -1.811214    0.457947   -0.133814
C     -2.685571   -0.753540   -0.551905
C     -1.891784   -1.899868   -1.140507
O     -0.721848   -1.718579   -1.570518
O     -2.475028   -3.155574   -1.296299
N     -3.525264   -1.228678    0.552894
H      2.031886    2.069067   -1.919397
H      3.169335    0.677243   -2.029378
H      3.495446    2.021459   -0.864718
H      1.121772    0.068470   -0.810961
H      2.135596   -0.861546    1.263071
H      3.250252   -1.028358   -0.143467
H      4.272751   -0.259845    1.748982
H      1.743258    2.502897    0.865129
H     -1.470174   -0.033835    1.959952
H     -0.246953   -0.718906    0.860422
H     -2.482992    1.301562    0.140085
H     -1.219689    0.796721   -1.013045
H     -3.362714   -0.398322   -1.358590
H     -3.434132   -3.333155   -1.023349
H     -4.017536   -0.415486    0.990105
H     -2.930381   -1.680660    1.284865
