26

C     -1.342222   -0.363790    0.815289
C     -1.765271    0.572490   -0.338227
C     -2.678724   -0.138772   -1.303097
O     -3.838286   -0.482941   -0.950932
O     -2.234300   -0.440644   -2.584216
N     -2.420359    1.775071    0.189975
C     -0.463703   -1.502479    0.330000
C     -1.037770   -2.688455    0.069741
O     -0.298731   -3.772758   -0.392292
C      1.000975   -1.323385    0.109289
C      1.639341   -0.150672    0.242564
C      3.094790   -0.015954    0.011588
O      3.783713   -1.021728   -0.311370
C      3.764131    1.287144    0.153364
O      3.108232    2.314870    0.473513
O      5.134523    1.386467   -0.068335
H     -2.249827   -0.758016    1.325617
H     -0.801342    0.211488    1.595840
H     -0.855967    0.891055   -0.895272
H     -3.259659    1.519613    0.760405
H     -2.715628    2.395135   -0.599425
H     -1.749181    2.308107    0.789691
H     -2.102620   -2.824644    0.213632
H      1.581082   -2.191314   -0.180365
H      1.093682    0.739557    0.518819
H      5.613123    2.274556    0.024204
