46

C     -2.133782    2.897924   -0.610902
C     -2.629153    1.623495    0.034005
C     -1.807179    0.578851    0.254430
C     -0.387048    0.538114   -0.158389
C      0.387125   -0.503239    0.158501
C      1.807262   -0.543967   -0.254298
C      2.629193   -1.588670   -0.033999
C      4.052136   -1.451891   -0.436617
C      5.049514   -2.111992    0.164427
C      6.451196   -1.922118   -0.271612
C      7.507070   -2.548324    0.290677
C      8.879004   -2.286757   -0.218235
O      9.071871   -1.490208   -1.175853
O      9.976735   -2.917761    0.355244
C      7.319861   -3.514319    1.436389
C      2.133751   -2.863186    0.610682
C     -4.052070    1.486737    0.436719
C     -5.049506    2.146681   -0.164403
C     -6.451155    1.956855    0.271763
C     -7.507090    2.582859   -0.290633
C     -8.878978    2.321400    0.218461
O     -9.071764    1.525003    1.176222
O     -9.976755    2.952341   -0.355001
C     -7.319995    3.548531   -1.436634
H     -2.834014    3.740424   -0.436664
H     -1.166009    3.211292   -0.166394
H     -2.012759    2.744247   -1.703657
H     -2.208726   -0.304682    0.740535
H      0.034193    1.347558   -0.741086
H     -0.034115   -1.312687    0.741192
H      2.208849    0.339621   -0.740267
H      4.293071   -0.744246   -1.223055
H      4.830845   -2.768424    0.994869
H      6.622160   -1.236358   -1.093944
H      6.866184   -2.988501    2.303025
H      8.279100   -3.955089    1.775563
H      6.660318   -4.350720    1.121883
H      2.833930   -3.705696    0.436277
H      1.165953   -3.176414    0.166132
H      2.012753   -2.709701    1.703466
H     -4.292937    0.779239    1.223310
H     -4.830906    2.802956   -0.994988
H     -6.622037    1.271316    1.094297
H     -8.279287    3.989082   -1.775945
H     -6.660547    4.385101   -1.122380
H     -6.866261    3.022506   -2.303115
