30

C     -3.492054    0.235172   -0.753778
C     -2.690719   -0.858660   -0.039117
C     -1.896371   -0.264127    1.105345
O     -2.484024    0.258788    2.041490
C     -0.390575   -0.309790    1.117480
C      0.191568    1.095593    0.913243
C      1.724698    1.124730    1.018725
C      2.413810    0.460286   -0.182321
C      3.932720    0.646118   -0.114965
C      4.592711   -0.010870   -1.285778
O      4.815564    0.644146   -2.337609
O      4.914590   -1.361040   -1.234950
N     -3.579695   -1.918821    0.448773
H     -2.806330    1.023610   -1.131251
H     -4.036149   -0.197171   -1.619804
H     -4.230097    0.698488   -0.065264
H     -1.994596   -1.300691   -0.786331
H     -0.026535   -0.986122    0.317420
H     -0.052057   -0.724131    2.091877
H     -0.126263    1.495236   -0.074674
H     -0.217394    1.771347    1.695991
H      2.047527    0.631046    1.961622
H      2.042586    2.189547    1.069656
H      2.031563    0.910432   -1.125077
H      2.186461   -0.627466   -0.190307
H      4.182294    1.730165   -0.111885
H      4.326575    0.196573    0.822802
H     -3.015035   -2.661953    0.921864
H     -4.279773   -1.534942    1.125385
H     -4.084998   -2.355491   -0.356458
