24

C      0.981016   -0.013377   -0.924746
C     -0.025742   -1.023756   -0.362391
C     -1.146292   -0.316028    0.363796
C     -0.958302    0.046432    1.650397
C     -1.858386    0.900058    2.449670
O     -2.648266    1.714806    1.901606
O     -1.772725    0.856405    3.837198
C     -2.403678   -0.058400   -0.375239
O     -2.366926    0.186176   -1.611121
O     -3.635532   -0.155172    0.266410
C      2.113606   -0.723046   -1.671812
C      3.091831    0.275788   -2.211576
O      2.982518    0.685021   -3.397345
O      4.098327    0.790332   -1.399638
H      1.409138    0.583775   -0.089000
H      0.458690    0.679404   -1.621377
H      0.492458   -1.726372    0.327777
H     -0.441692   -1.636428   -1.192473
H     -0.048341   -0.268017    2.148442
H     -2.358148    1.449494    4.413285
H     -4.499355   -0.002801   -0.240319
H      1.695277   -1.322081   -2.510314
H      2.644310   -1.416238   -0.983828
H      4.196215    0.494027   -0.435878
