50

C     -4.454244    0.720770   -3.141538
C     -4.597964    1.038478   -1.672462
C     -3.533823    1.333256   -0.893379
C     -2.105416    1.407027   -1.376422
C     -1.215526    0.607014   -0.461332
C     -0.522595    1.248152    0.575655
C      0.323695    0.527045    1.432149
C      0.421949   -0.873842    1.297092
C     -0.286484   -1.516117    0.263541
C     -1.098341   -0.784886   -0.611434
O     -1.793250   -1.439974   -1.628262
O      1.207908   -1.599442    2.205069
C      1.430635   -3.004387    2.144723
C      1.083626    1.278193    2.457820
O      0.436283    1.990928    3.271945
C      2.597660    1.279652    2.543373
C      3.298072    1.641972    1.210486
C      3.136029    0.613979    0.113393
C      3.775935   -0.634496    0.199888
C      3.592143   -1.593522   -0.800569
C      2.781506   -1.310303   -1.907457
C      2.170102   -0.058140   -2.016494
C      2.352878    0.902827   -1.018182
O      2.579855   -2.263304   -2.903015
O      3.060382    0.059315    3.055704
C     -5.967466    1.031552   -1.043290
H     -3.982337    1.576147   -3.669635
H     -5.439134    0.530357   -3.616159
H     -3.832579   -0.189575   -3.272954
H     -3.706916    1.579337    0.152162
H     -1.979583    1.041112   -2.415657
H     -1.794026    2.473654   -1.382648
H     -0.613024    2.321916    0.694763
H     -0.219385   -2.587264    0.132938
H     -1.726199   -2.442581   -1.758462
H      2.111016   -3.298092    2.969839
H      0.470539   -3.549017    2.264757
H      1.907394   -3.274350    1.178808
H      2.875245    2.084121    3.265721
H      4.384683    1.774899    1.404186
H      2.922623    2.632193    0.870084
H      4.412275   -0.870137    1.042759
H      4.077610   -2.557086   -0.712864
H      1.545418    0.167938   -2.871201
H      1.863705    1.863750   -1.117547
H      3.007840   -3.180375   -2.852140
H      3.992908    0.208337    3.362926
H     -6.757672    0.772619   -1.778353
H     -5.999086    0.284079   -0.222347
H     -6.194862    2.036271   -0.628089
