27

C     -0.751712   -0.415980    0.112124
C     -1.783040   -1.470135    0.540485
C     -3.155858   -0.853119    0.837995
C     -3.126961    0.000636    2.072146
O     -3.209551   -0.536559    3.207956
O     -2.974745    1.381080    1.977871
C      0.586464   -1.070003   -0.250125
C      1.595627   -0.024132   -0.663965
C      2.378152    0.532223    0.285894
C      3.501229    1.459464    0.047351
O      4.102645    1.490165   -1.059771
O      3.949865    2.258476    1.093679
C      1.581854    0.429681   -2.075436
O      1.781144    1.640170   -2.365387
O      1.273439   -0.472535   -3.089362
H     -1.138517    0.141725   -0.769340
H     -0.589480    0.304698    0.943056
H     -1.416304   -2.016726    1.437416
H     -1.906503   -2.209824   -0.280686
H     -3.892294   -1.672154    0.987593
H     -3.501765   -0.254036   -0.031922
H     -2.886950    1.839463    1.078802
H      0.433901   -1.798009   -1.075961
H      0.967082   -1.650449    0.619992
H      2.213572    0.254039    1.320582
H      4.735221    2.886160    0.968892
H      1.233486   -0.174321   -4.056657
