40

C      4.078931    0.499193   -1.747722
C      4.264876    0.154271   -0.289157
C      3.641793    0.845810    0.690644
C      2.714356    2.009948    0.447994
N      1.477631    1.567279   -0.192325
C      0.530256    0.715093    0.467810
C     -0.619648    0.272331   -0.176825
C     -1.491740   -0.532405    0.472164
N     -1.298137   -0.943760    1.748537
C     -0.172652   -0.514748    2.394652
N      0.725808    0.303645    1.758335
N     -2.513772   -0.831521   -0.338696
C     -2.214827   -0.179601   -1.491938
N     -1.046621    0.517687   -1.430313
C     -3.687212   -1.660276   -0.056747
C     -4.860991   -0.838098    0.516527
C     -4.504454   -0.226134    1.847064
O     -3.998401    0.925873    1.913606
O     -4.684663   -0.960339    3.012511
N     -5.328714    0.179909   -0.434187
C      5.168840   -0.995709    0.092089
O      6.275290   -0.527252    0.813854
H      4.360502    1.557256   -1.929758
H      4.716058   -0.135160   -2.398323
H      3.022582    0.337431   -2.045395
H      3.813183    0.561698    1.726029
H      3.219522    2.770327   -0.184980
H      2.470130    2.496375    1.416660
H      1.269248    1.913312   -1.156318
H      0.011257   -0.823245    3.414435
H     -2.841519   -0.206619   -2.374018
H     -4.014176   -2.165362   -0.991776
H     -3.411379   -2.463376    0.661682
H     -5.698629   -1.549523    0.695294
H     -5.580590   -0.272261   -1.343004
H     -4.595539    0.905518   -0.603887
H     -6.183990    0.647093   -0.053785
H      4.602482   -1.710354    0.726636
H      5.512142   -1.561746   -0.802717
H      6.872767   -0.082560    0.157048
