50

C     -7.822748    1.964423    0.552170
C     -7.021786    0.666335    0.594102
C     -6.459919    0.317307   -0.788790
C     -5.656415   -0.987422   -0.742855
C     -5.097513   -1.337483   -2.127979
C     -4.299041   -2.612700   -2.086678
C     -3.048839   -2.715723   -1.613980
C     -2.268330   -1.580029   -1.082001
C     -1.040909   -1.760524   -0.600005
O     -0.325450   -0.671072   -0.105140
C      0.961265   -0.813661    0.411658
C      1.610226    0.253597    0.874319
C      2.990046    0.148613    1.456753
C      4.036997   -0.104805    0.361691
C      5.446737   -0.348435    0.929116
C      6.043836    0.829312    1.725791
C      6.116715    2.167059    0.962265
C      6.953674    2.117671   -0.325609
C      8.385135    1.773170   -0.050653
O      9.167632    2.643040    0.414741
O      8.846298    0.482203   -0.274805
H     -8.680251    1.866347   -0.147201
H     -7.176277    2.806372    0.224685
H     -8.215430    2.191786    1.565616
H     -6.187218    0.782402    1.319640
H     -7.684378   -0.153629    0.947613
H     -7.299627    0.207582   -1.510244
H     -5.800132    1.142866   -1.136458
H     -6.315621   -1.814245   -0.396897
H     -4.825339   -0.878196   -0.013419
H     -4.480441   -0.506966   -2.533281
H     -5.949111   -1.484161   -2.827494
H     -4.766516   -3.505721   -2.484077
H     -2.583206   -3.694497   -1.636848
H     -2.680329   -0.579602   -1.078228
H     -0.596777   -2.750328   -0.590387
H      1.432021   -1.790478    0.438430
H      1.120375    1.219936    0.861609
H      3.217565    1.105149    1.972331
H      3.014408   -0.666873    2.212485
H      4.050024    0.742483   -0.356184
H      3.748804   -1.011190   -0.214147
H      5.413783   -1.238530    1.594637
H      6.128660   -0.611057    0.092945
H      7.065548    0.544956    2.057610
H      5.452914    0.981763    2.653640
H      5.091580    2.515328    0.716531
H      6.551155    2.933459    1.640965
H      6.520346    1.392617   -1.045685
H      6.915859    3.116112   -0.812296
