50

C      5.553453   -1.312123    0.539225
C      6.205333   -0.022018    0.095965
C      5.644312    0.767818   -0.848966
C      4.330631    0.463778   -1.524119
N      3.209760    0.711996   -0.616784
C      1.866440    0.357428   -0.971295
C      0.788488    0.695009   -0.159956
C     -0.466935    0.341258   -0.519139
N     -0.734512   -0.352295   -1.651912
C      0.315603   -0.691318   -2.458469
N      1.596692   -0.337343   -2.119037
N     -1.336163    0.768178    0.408066
C     -0.547065    1.370694    1.335318
N      0.776232    1.351265    1.015476
C     -2.784605    0.557868    0.484948
C     -3.080383   -0.779127    1.188551
C     -4.602444   -0.999200    1.272600
C     -5.259589   -0.800084   -0.109074
C     -4.755005    0.485163   -0.819380
O     -3.336118    0.584920   -0.822835
C     -5.430515    1.790308   -0.339650
O     -6.771062    1.830988   -0.753565
O     -4.974474   -1.905059   -0.930455
O     -5.173550   -0.113598    2.202822
O     -2.476952   -1.833858    0.481586
C      7.514437    0.402909    0.715725
O      8.519226    0.399183   -0.260423
H      6.149462   -1.822518    1.324528
H      4.544926   -1.108040    0.956331
H      5.464319   -2.006334   -0.323268
H      6.152740    1.682722   -1.143986
H      4.318015   -0.590238   -1.876957
H      4.222945    1.121036   -2.413969
H      3.380633    1.193634    0.296013
H      0.135466   -1.244358   -3.370244
H     -0.927474    1.814705    2.245793
H     -3.202378    1.388704    1.095197
H     -2.657052   -0.734486    2.220556
H     -4.801799   -2.044415    1.609929
H     -6.364433   -0.731722    0.023098
H     -5.051717    0.384244   -1.887490
H     -5.358013    1.924185    0.761546
H     -4.903877    2.651084   -0.805267
H     -7.316244    1.461008   -0.011294
H     -5.551744   -2.652255   -0.622973
H     -4.935929   -0.450772    3.106432
H     -2.440973   -2.609532    1.100480
H      7.402720    1.425507    1.142174
H      7.803149   -0.281403    1.544323
H      9.346021    0.707799    0.193826
