25

C     -3.291973   -1.166345    0.428184
C     -2.194444   -0.207565    0.756002
O     -2.068276    0.213623    1.937673
N     -1.314351    0.251543   -0.279117
C     -0.258591    1.238651   -0.035731
C      0.951588    0.983148   -0.956281
C      1.572854   -0.415591   -0.788354
C      2.247410   -0.607565    0.576115
C      2.969444   -1.917051    0.621173
O      4.180830   -1.984867    0.284397
O      2.291180   -3.072554    0.987924
C     -0.801114    2.617416   -0.276420
O     -0.579949    3.538474    0.553330
O     -1.520093    2.895048   -1.433084
H     -2.888732   -2.003490   -0.179182
H     -4.080294   -0.641441   -0.150278
H     -3.738098   -1.581268    1.356970
H     -1.515633   -0.037955   -1.263745
H      0.082057    1.176662    1.020362
H      1.732100    1.752924   -0.765898
H      0.632781    1.094396   -2.016477
H      2.336731   -0.544680   -1.586874
H      0.799292   -1.199537   -0.940096
H      1.487002   -0.599741    1.384748
H      2.968283    0.217766    0.764658
