24

C      4.045198    0.533537   -0.551599
C      2.809352   -0.040581    0.060401
O      2.626938   -1.288005    0.041159
N      1.861816    0.822922    0.703202
C      0.631092    0.325475    1.314856
C     -0.395840   -0.035358    0.236589
C     -1.712185   -0.510453    0.867944
C     -2.721089   -1.012750   -0.178331
N     -3.229209    0.071826   -1.020724
H      4.753398    0.825856    0.251246
H      4.534022   -0.212013   -1.214183
H      3.784946    1.429064   -1.153780
H      2.082157    1.841259    0.785420
H      0.858151   -0.558696    1.949773
H      0.207819    1.117929    1.970356
H     -0.581646    0.863576   -0.389223
H      0.014372   -0.839476   -0.411640
H     -2.166216    0.313394    1.460992
H     -1.495626   -1.349233    1.565409
H     -2.251866   -1.795908   -0.814371
H     -3.574474   -1.484736    0.357286
H     -3.592671    0.854013   -0.429222
H     -2.476887    0.422786   -1.655383
H     -4.011553   -0.294428   -1.609833
