43

C      3.573199    1.455849   -0.936502
C      2.492204    0.703344   -0.150903
C      2.409668   -0.762097   -0.617210
C      1.203461   -1.519331   -0.002726
C      1.417692   -1.712379    1.523727
C      0.974585   -0.514728    2.323234
O      1.248260   -0.457284    3.550326
O      0.215598    0.513108    1.743200
C     -0.055010    0.608690    0.335981
C      1.131278    1.413753   -0.284585
C     -0.177440   -0.819649   -0.283090
C     -0.471032   -0.706054   -1.805629
C     -1.710787    0.149181   -2.101704
C     -1.764251    1.472617   -1.310277
N     -1.302893    1.372754    0.100013
C     -2.355898    1.344599    1.142691
C     -2.584299   -0.021999    1.812197
C     -2.654636   -1.179783    0.827534
C     -1.310405   -1.687108    0.328784
O     -1.187860   -2.903649    0.272780
H      3.332457    1.474224   -2.021295
H      3.653515    2.501559   -0.570035
H      4.559096    0.962935   -0.797484
H      2.805017    0.724691    0.914809
H      3.351742   -1.282648   -0.336237
H      2.369765   -0.815478   -1.724566
H      1.201992   -2.528821   -0.472008
H      0.837157   -2.591922    1.873168
H      2.483965   -1.932571    1.747633
H      0.954835    1.637441   -1.354900
H      1.194370    2.398465    0.229276
H     -0.619131   -1.719514   -2.239816
H      0.372651   -0.261660   -2.364876
H     -2.630129   -0.441103   -1.941417
H     -1.716815    0.392280   -3.186704
H     -2.797051    1.876866   -1.372791
H     -1.140951    2.226034   -1.834778
H     -2.076930    2.070816    1.935605
H     -3.327232    1.704601    0.739776
H     -1.845138   -0.234462    2.609489
H     -3.561149    0.034941    2.341420
H     -3.337109   -0.928104   -0.002787
H     -3.156362   -2.018405    1.360678
