33

C     -4.521455   -0.177656   -0.601031
C     -3.173826    0.418706   -0.166158
C     -3.293503    0.961655    1.269888
N     -2.106421   -0.601125   -0.283936
C     -0.756106   -0.019865   -0.165760
C      0.335277   -1.078216   -0.447169
C      1.720740   -0.533681   -0.156153
C      2.493503   -1.088723    0.879647
C      3.769735   -0.589983    1.160937
C      4.285045    0.472421    0.407901
C      3.524810    1.036623   -0.624071
C      2.249070    0.535845   -0.903470
O      4.026920    2.095497   -1.377395
O      4.516874   -1.157023    2.191025
O      0.264907   -1.565511   -1.765341
H     -5.323667    0.588257   -0.535464
H     -4.791806   -1.040258    0.045147
H     -4.465699   -0.523421   -1.655107
H     -2.958174    1.273016   -0.847661
H     -4.171361    1.637377    1.354581
H     -3.414403    0.129494    1.995848
H     -2.398692    1.556993    1.542823
H     -2.184459   -1.058075   -1.222949
H     -2.235549   -1.337884    0.449497
H     -0.599109    0.362614    0.866120
H     -0.641763    0.832413   -0.872322
H      0.137701   -1.939923    0.227659
H      2.107545   -1.909219    1.472102
H      5.272747    0.859364    0.624972
H      1.672721    0.986526   -1.701190
H      4.946899    2.481923   -1.200748
H      5.444304   -0.819353    2.420704
H      0.267194   -0.788809   -2.382926
