33

C      3.228968    1.527511    0.663471
C      2.948995    0.055321    1.017811
C      4.275961   -0.716520    1.081917
N      2.037560   -0.583790    0.041156
C      0.658145   -0.070656    0.138112
C     -0.309415   -0.895846   -0.740945
C     -1.741470   -0.423294   -0.577229
C     -2.133925    0.859070   -1.005379
C     -3.457538    1.289711   -0.840418
C     -4.396013    0.442694   -0.244738
C     -4.019789   -0.831155    0.189793
C     -2.696144   -1.262209    0.025413
O     -4.967745   -1.661070    0.784324
O     -3.849214    2.557743   -1.264132
O      0.067076   -0.873061   -2.096626
H      2.315463    2.143828    0.787396
H      3.999691    1.948017    1.344321
H      3.591576    1.617735   -0.382721
H      2.498914    0.018727    2.036066
H      4.093604   -1.767998    1.389919
H      4.775064   -0.715477    0.089133
H      4.956926   -0.255489    1.829045
H      2.399772   -0.436084   -0.930428
H      2.015884   -1.614147    0.229052
H      0.305786   -0.124267    1.193221
H      0.622568    0.991519   -0.185324
H     -0.240259   -1.953625   -0.404642
H     -1.415665    1.527326   -1.462436
H     -5.418540    0.775633   -0.117403
H     -2.415061   -2.250180    0.368826
H     -4.728492   -2.590108    1.110719
H     -3.194197    3.196885   -1.699268
H      0.191514    0.073254   -2.368006
