46

C     -6.586253   -0.590117   -0.259630
C     -5.420819   -0.412305   -1.239598
C     -5.036363    1.067194   -1.399889
N     -4.278653   -1.277554   -0.879433
C     -3.501991   -0.811240    0.281836
C     -2.559144   -1.924166    0.774514
C     -1.853695   -1.515019    2.078916
O     -1.181250   -0.260450    1.944504
C      0.048377   -0.047517    1.300899
C      0.943644   -1.091527    0.995694
C      2.155180   -0.816115    0.353482
C      2.486080    0.500640   -0.004244
C      1.600876    1.541758    0.315050
C      0.395272    1.266966    0.965939
C      3.794355    0.802303   -0.686366
C      4.827120    1.309014    0.322300
C      6.122510    1.617039   -0.359890
O      6.232821    2.666357   -1.050250
O      7.193785    0.727368   -0.237858
C      8.443748    0.942810   -0.881128
O     -1.598764   -2.216541   -0.209281
H     -7.493935   -0.096731   -0.664499
H     -6.361331   -0.139284    0.728549
H     -6.803643   -1.671545   -0.126028
H     -5.793789   -0.754954   -2.231679
H     -5.886691    1.629445   -1.839481
H     -4.787775    1.527099   -0.419237
H     -4.165429    1.168631   -2.083170
H     -3.637235   -1.323964   -1.705906
H     -4.179353   -0.535242    1.117575
H     -2.899003    0.082935    0.003649
H     -3.167650   -2.833441    1.000453
H     -1.160499   -2.309774    2.423795
H     -2.622155   -1.406429    2.874044
H      0.723334   -2.116994    1.255169
H      2.834347   -1.630924    0.133546
H      1.845434    2.566228    0.059893
H     -0.279935    2.079488    1.202659
H      4.183952   -0.109547   -1.190875
H      3.628315    1.569790   -1.473004
H      4.998121    0.536757    1.102954
H      4.452003    2.229137    0.821240
H      8.877545    1.913527   -0.556627
H      8.306107    0.945291   -1.985270
H      9.142711    0.127722   -0.603129
H     -1.980284   -2.926119   -0.788661
