49

C     -5.327165    0.263211    1.256254
C     -3.908853   -0.285921    1.465833
C     -3.381113    0.164398    2.835478
C     -2.958643    0.198740    0.324571
C     -3.277781   -0.295783   -1.094755
C     -2.986847   -1.812300   -0.994435
C     -1.781970   -1.871800   -0.015782
C     -1.534902   -0.382024    0.318018
C     -1.029477    0.249764   -0.952620
C     -2.104278    0.305086   -1.814442
C     -1.962139    0.712157   -3.137470
C     -0.685164    1.100322   -3.573937
C      0.420701    1.040750   -2.699332
C      0.261428    0.601479   -1.364082
N      1.381014    0.440351   -0.476884
C      2.581816    1.220437   -0.561157
O      2.546543    2.376320   -1.063678
C      3.851536    0.721692    0.000971
C      4.923239    1.500732    0.390028
N      5.892332    0.686216    0.845646
N      5.515482   -0.577731    0.738015
C      4.270290   -0.588455    0.220185
C      3.517260   -1.851377   -0.065784
F      2.760571   -2.199216    1.037281
F      4.404956   -2.874531   -0.344700
C      7.211089    1.103887    1.300417
H     -5.765814   -0.142462    0.321208
H     -5.988154   -0.044266    2.094715
H     -5.315418    1.372942    1.199284
H     -3.987645   -1.391393    1.493706
H     -3.256759    1.268240    2.866183
H     -2.404595   -0.316013    3.051986
H     -4.085908   -0.137954    3.639406
H     -2.934877    1.317676    0.364585
H     -4.267910   -0.011761   -1.508403
H     -3.864425   -2.360029   -0.589492
H     -2.725065   -2.243246   -1.986337
H     -0.890864   -2.334263   -0.495791
H     -2.032124   -2.448825    0.899945
H     -0.922658   -0.176384    1.220152
H     -2.806861    0.713029   -3.813636
H     -0.542932    1.418723   -4.598448
H      1.399557    1.294624   -3.083122
H      1.287824   -0.222369    0.323566
H      4.990524    2.580690    0.347014
H      2.854673   -1.717904   -0.945556
H      7.132993    2.047762    1.880778
H      7.872151    1.265596    0.423528
H      7.654361    0.321187    1.951807
