45

C      4.709082   -0.363226    0.469660
C      3.769479    0.788321    0.804980
N      2.421780    0.258384    0.655681
C      2.414725   -1.173229    0.397743
C      3.859962   -1.632257    0.593835
N      4.251062   -2.655801   -0.381135
C      1.208029    1.039003    0.672887
C      1.185709    2.394107    1.057885
C     -0.024093    3.091033    1.049197
C     -1.211416    2.450182    0.659720
C     -2.449559    3.115941    0.652282
O     -2.522913    4.317785    1.030768
C     -3.609084    2.426101    0.252131
C     -3.502750    1.071228   -0.097305
N     -2.296088    0.431237   -0.091032
C     -1.155250    1.093058    0.281416
N      0.040737    0.441762    0.308609
C     -2.249175   -0.956771   -0.474491
C     -1.526244   -1.362307   -1.611581
C     -1.476855   -2.714261   -1.966618
C     -2.150760   -3.667216   -1.197200
C     -2.878827   -3.269562   -0.072190
C     -2.930396   -1.919730    0.287881
F     -2.101092   -4.976873   -1.544283
F     -0.883732   -0.446941   -2.379939
C     -4.938732    3.081568    0.213893
O     -5.968594    2.421651    0.515217
O     -5.086039    4.410196   -0.180557
F      2.305572    3.044393    1.459169
H      5.578045   -0.390831    1.162518
H      5.080853   -0.239938   -0.571799
H      3.936689    1.634115    0.103118
H      3.927591    1.117440    1.854773
H      1.743375   -1.692670    1.115925
H      2.061644   -1.357219   -0.640858
H      3.972693   -2.038143    1.625569
H      3.646042   -3.500461   -0.261145
H      5.246145   -2.932265   -0.216183
H      4.151111   -2.297617   -1.359199
H     -0.028544    4.131113    1.352042
H     -4.393404    0.531512   -0.402295
H     -0.918388   -3.022983   -2.841005
H     -3.402170   -4.006898    0.522814
H     -3.491274   -1.622039    1.164911
H     -4.314947    4.949108   -0.554210
