25

C      3.426631    0.820857    0.142076
C      3.114583   -0.232048   -0.919706
C      2.225407   -1.355338   -0.371845
N      0.916148   -0.845740    0.035518
C     -0.109724   -0.508637   -0.913929
O      0.139125   -0.573144   -2.149161
C     -1.454511   -0.069737   -0.469127
C     -1.980614   -0.471827    0.773764
C     -3.253359   -0.051268    1.172876
C     -4.016180    0.767320    0.337438
C     -3.510560    1.162699   -0.902547
C     -2.239248    0.744516   -1.307423
H      4.108731    1.586226   -0.284315
H      3.923201    0.351507    1.017866
H      2.495129    1.326066    0.474479
H      2.624866    0.255897   -1.788982
H      4.070335   -0.674778   -1.274207
H      2.096466   -2.143781   -1.144601
H      2.726230   -1.827011    0.501816
H      0.746390   -0.716306    1.057316
H     -1.427605   -1.130856    1.428976
H     -3.651463   -0.366698    2.128731
H     -5.001140    1.090646    0.648572
H     -4.103933    1.794160   -1.551193
H     -1.864906    1.067276   -2.271119
