50

C     -0.508920    2.866003    0.666562
C     -0.558500    1.988056   -0.580719
C      0.051286    0.617026   -0.309468
C     -0.738733   -0.458503   -0.025221
C     -0.125936   -1.854687    0.149702
O      1.222689   -1.767120    0.611662
C      2.076659   -0.732256    0.241741
C      1.542311    0.466692   -0.254589
C      2.434189    1.499921   -0.613135
C      3.815460    1.326465   -0.483252
C      4.337501    0.118860    0.008839
C      3.456821   -0.896702    0.388420
O      5.714532   -0.093383    0.173983
C      6.724368    0.507564   -0.588564
O      6.469723    1.038410   -1.703428
C      8.138936    0.412916   -0.127686
C     -0.122976   -2.586793   -1.201717
C     -0.902196   -2.690453    1.181972
C     -2.217216   -0.333331   -0.014567
C     -2.883882   -0.002478    1.173039
C     -4.276071    0.120713    1.188873
C     -5.019917   -0.083928    0.010518
C     -4.347654   -0.409877   -1.173551
C     -2.955712   -0.533155   -1.189354
O     -6.417713    0.027869   -0.025801
C     -7.227240    0.353148    1.099458
H     -1.084554    2.395380    1.491096
H      0.539644    3.018775    0.997590
H     -0.956719    3.856837    0.441929
H     -1.610736    1.924257   -0.924208
H     -0.035595    2.489768   -1.418795
H      2.086237    2.454512   -0.975746
H      4.467706    2.152405   -0.731568
H      3.846886   -1.826470    0.783444
H      8.610889   -0.491044   -0.565468
H      8.705727    1.313546   -0.445271
H      8.171476    0.341556    0.979662
H      0.402937   -3.561203   -1.108609
H     -1.158257   -2.782787   -1.552032
H      0.404761   -1.981001   -1.969452
H     -0.940795   -2.155613    2.155012
H     -0.395056   -3.665826    1.344510
H     -1.939943   -2.894859    0.841096
H     -2.324353    0.157540    2.086488
H     -4.763184    0.375128    2.120148
H     -4.907550   -0.565092   -2.087066
H     -2.453558   -0.771624   -2.118448
H     -8.291309    0.373250    0.786891
H     -7.104046   -0.413953    1.892940
H     -6.952420    1.355543    1.490504
