39

C      6.881523   -1.438474   -1.543046
O      6.276220   -0.410242   -0.765963
C      4.942622   -0.426770   -0.328401
C      4.473879    0.654718    0.431607
C      3.148349    0.673730    0.888471
C      2.282275   -0.391342    0.600120
C      2.746367   -1.464653   -0.173436
C      4.066787   -1.487483   -0.629981
C      0.849952   -0.352107    1.057679
N      0.008261    0.216982   -0.000373
C     -1.403468    0.185264    0.398165
C     -2.281254    0.694443   -0.747575
C     -3.736356    0.644876   -0.365056
C     -4.334505    1.734495    0.288818
C     -5.677705    1.675213    0.672850
C     -6.432755    0.525848    0.417508
C     -5.837096   -0.569297   -0.222984
C     -4.494090   -0.512451   -0.607998
O     -7.769858    0.480809    0.805547
O      5.333485    1.711361    0.727751
H      7.938096   -1.166835   -1.743569
H      6.860876   -2.399587   -0.987118
H      6.351855   -1.545899   -2.513159
H      2.794056    1.518553    1.466584
H      2.084511   -2.284772   -0.423647
H      4.395301   -2.332484   -1.219388
H      0.518731   -1.387559    1.296975
H      0.763106    0.251922    1.989745
H      0.284179    1.220666   -0.122525
H     -1.705022   -0.859157    0.639173
H     -1.562696    0.821881    1.298683
H     -2.105937    0.072820   -1.653113
H     -1.994592    1.738304   -1.002969
H     -3.760516    2.627860    0.501937
H     -6.131354    2.521794    1.172395
H     -6.412312   -1.465099   -0.419493
H     -4.044493   -1.369801   -1.093587
H     -8.343106   -0.337367    0.635659
H      5.026682    2.508046    1.273713
