28

C     -1.934188    1.004550   -0.536369
C     -0.874903    0.083394    0.146363
C     -0.042770    0.798432    1.238475
C      1.021947   -0.269723    1.616644
C      1.301427   -0.982412    0.263800
C      0.373917   -0.212394   -0.715179
C      0.959405    1.175952   -0.828299
O      1.599260    1.610140   -1.773689
C      0.708888    1.907978    0.452952
C      0.123281   -0.918737   -2.053279
O      2.651554   -0.866995   -0.109645
C     -1.650804   -1.165195    0.664535
H     -2.628583    1.411337    0.229423
H     -2.531596    0.425787   -1.272901
H     -1.501414    1.859742   -1.092357
H     -0.627411    1.177868    2.103867
H      0.622774   -0.980122    2.371231
H      1.938712    0.191773    2.045784
H      1.020840   -2.059623    0.309499
H      0.071423    2.802366    0.290194
H      1.659566    2.214063    0.940656
H      1.086048   -1.079069   -2.583010
H     -0.354178   -1.906531   -1.885283
H     -0.538398   -0.304636   -2.699563
H      3.161046   -1.469432    0.492621
H     -2.155524   -1.679989   -0.180275
H     -1.029619   -1.922903    1.175373
H     -2.430699   -0.845622    1.388430
