45

C     -0.493401   -2.212507    1.953197
C     -0.716805   -0.702269    1.918410
C     -1.084884   -0.229280    0.518430
C     -0.129009    0.200167   -0.354799
C     -0.501932    0.595045   -1.791097
O     -1.864254    1.021040   -1.866512
C     -2.865991    0.454603   -1.083469
C     -2.521314   -0.221710    0.096593
C     -3.548844   -0.822938    0.854278
C     -4.882733   -0.721163    0.447026
C     -5.213322   -0.016267   -0.716073
C     -4.202110    0.573486   -1.477415
O     -6.540013    0.100114   -1.124513
C      0.363887    1.760249   -2.299629
C     -0.326565   -0.616260   -2.721000
C      1.306214    0.188226    0.023751
C      1.871011    1.303139    0.659312
C      3.223573    1.303859    1.011864
C      4.030529    0.184448    0.730558
C      3.461083   -0.925287    0.094895
C      2.109061   -0.925525   -0.258341
O      5.392096    0.135439    1.064301
C      6.099152    1.188374    1.711408
H      0.369941   -2.492421    1.316171
H     -1.393011   -2.754173    1.594210
H     -0.279609   -2.531689    2.994847
H      0.192835   -0.194641    2.299989
H     -1.512019   -0.425950    2.641217
H     -3.339617   -1.373979    1.759020
H     -5.659646   -1.186389    1.040440
H     -4.451621    1.111231   -2.383517
H     -7.295800   -0.317621   -0.594256
H      0.271659    2.631101   -1.615879
H      0.025203    2.076775   -3.309601
H      1.434121    1.469666   -2.370637
H      0.741468   -0.908966   -2.799830
H     -0.907636   -1.484006   -2.341074
H     -0.695160   -0.372583   -3.740537
H      1.261675    2.170536    0.881934
H      3.631030    2.177591    1.501619
H      4.070229   -1.792777   -0.125276
H      1.687492   -1.797316   -0.742285
H      6.075174    2.105409    1.085540
H      7.155872    0.882215    1.852675
H      5.651990    1.393005    2.707105
