30

C      3.693780   -0.542323    0.365627
C      3.295371    0.660404    0.948924
C      1.995365    1.130790    0.758083
C      1.081147    0.398862   -0.017411
C      1.471055   -0.831793   -0.584890
C      2.790337   -1.280855   -0.402468
C      0.570882   -1.632866   -1.446170
C     -0.752411   -1.780412   -1.283444
C     -1.571787   -1.173126   -0.209111
C     -2.676387   -1.896468    0.272715
C     -3.506070   -1.356238    1.258049
C     -3.251037   -0.082122    1.764651
C     -2.171760    0.658041    1.279688
C     -1.335131    0.127341    0.283447
N     -0.242324    0.908109   -0.216121
C     -0.470777    2.191724   -0.837441
O     -1.622426    2.704781   -0.822933
N      0.583661    2.883968   -1.512206
H      4.704477   -0.902847    0.507201
H      3.995601    1.231120    1.545084
H      1.696536    2.068023    1.210642
H      3.119709   -2.210944   -0.849959
H      1.037034   -2.229610   -2.221963
H     -1.249493   -2.484779   -1.940749
H     -2.892030   -2.887086   -0.109387
H     -4.347831   -1.926742    1.628871
H     -3.892132    0.333959    2.531044
H     -1.982295    1.645406    1.681643
H      0.405813    3.823787   -1.930910
H      1.523126    2.451895   -1.650504
