21

C      3.376313   -0.209224    0.573084
O      2.022042   -0.638886    0.669614
C      0.931393    0.014467    0.071440
C      1.104177    1.177101   -0.702014
C      0.010025    1.792717   -1.304447
C     -1.271063    1.275846   -1.127011
C     -1.479967    0.131129   -0.339717
C     -0.363028   -0.522680    0.243465
N     -0.517121   -1.759620    0.957090
C     -2.871395   -0.319972   -0.109605
O     -3.742137   -0.163974   -1.008044
O     -3.245728   -0.865553    1.115219
H      3.486692    0.806687    1.007736
H      3.702586   -0.209923   -0.488382
H      4.020113   -0.910459    1.142392
H      2.084180    1.608260   -0.853186
H      0.154072    2.683076   -1.903104
H     -2.107345    1.790827   -1.584295
H      0.262440   -2.154939    1.527950
H     -1.355829   -2.365652    0.827774
H     -4.200422   -1.159229    1.284040
