31

C     -1.819924    1.336798    2.082442
C     -1.640407    0.966064    0.604356
C     -2.606230   -0.190988    0.185355
C     -1.664400   -1.266135   -0.223189
C     -0.372832   -0.841312   -0.084304
O     -0.323391    0.446261    0.407426
C      0.714143   -1.675300   -0.389615
C      0.434453   -2.988223   -0.808907
C     -0.897121   -3.425833   -0.948622
C     -1.961351   -2.558204   -0.656526
O      2.048104   -1.267543   -0.253244
C      2.520712    0.021459   -0.526932
O      1.839700    0.822191   -1.225108
N      3.814755    0.404498   -0.053280
C      4.370159    1.726847   -0.312050
C     -1.830686    2.201924   -0.285147
H     -2.848472    1.715223    2.265800
H     -1.090651    2.122678    2.373876
H     -1.646478    0.446738    2.724621
H     -3.237892   -0.546655    1.028473
H     -3.257205    0.083707   -0.673130
H      1.246904   -3.666590   -1.035950
H     -1.100857   -4.435986   -1.279232
H     -2.987356   -2.888376   -0.754401
H      4.373512   -0.282166    0.501371
H      3.708173    2.504966    0.123069
H      4.464154    1.888228   -1.406586
H      5.375860    1.810637    0.151136
H     -1.100412    2.992060   -0.008039
H     -1.665854    1.935719   -1.351317
H     -2.859110    2.607311   -0.172345
