45

C     -1.989016    2.030791    0.578116
C     -2.116415    0.483504    0.756786
C     -1.383632    0.056354    2.051022
C      0.151539    0.236216    1.923563
C      0.748263   -0.428845    0.643434
C     -0.040013   -0.018540   -0.637118
C     -1.532548   -0.328719   -0.410723
C     -2.516927   -0.133264   -1.557662
C     -3.894781   -0.020481   -0.859236
C     -3.624256    0.130434    0.667512
O     -3.965890   -1.026919    1.397892
O     -4.742713   -1.105486   -1.153917
C      0.535323   -0.783538   -1.835645
C      1.971641   -0.327070   -2.103230
C      2.816356   -0.220538   -0.851901
C      2.246755   -0.185525    0.451479
C      3.116363   -0.084159    1.559507
C      4.493604    0.054411    1.380779
C      5.039849    0.068052    0.099415
C      4.203415   -0.068833   -1.011722
O      6.416189    0.213659   -0.060004
H     -0.943431    2.389586    0.562524
H     -2.489565    2.549140    1.424048
H     -2.472703    2.379631   -0.357569
H     -1.582392   -1.013071    2.277864
H     -1.756546    0.649420    2.914208
H      0.589988   -0.234671    2.827416
H      0.422229    1.312034    1.955317
H      0.633077   -1.528105    0.781281
H      0.094592    1.064763   -0.840874
H     -1.584483   -1.414869   -0.159777
H     -2.283526    0.802066   -2.111831
H     -2.476442   -0.984313   -2.272226
H     -4.393550    0.904096   -1.224741
H     -4.251231    0.957186    1.069902
H     -3.429181   -1.788450    1.061349
H     -4.218888   -1.943625   -1.065776
H      0.517507   -1.879054   -1.641567
H     -0.067681   -0.587481   -2.747935
H      1.946796    0.671487   -2.591805
H      2.442192   -1.040097   -2.814958
H      2.749333   -0.117454    2.573369
H      5.140404    0.143616    2.244560
H      4.635359   -0.059441   -2.005439
H      6.845038    0.226103   -0.978071
