40

C     -4.020682    2.101107    1.872721
C     -3.486234    0.674872    1.937590
C     -1.985895    0.665186    1.874305
C     -1.187735    0.265756    0.814260
C      0.113798    0.405036    1.290556
N      0.075593    0.858710    2.560865
N     -1.192686    1.017265    2.902168
C      1.378121    0.131488    0.571143
C      2.498129   -0.325880    1.283268
C      3.701155   -0.589517    0.621671
C      3.806642   -0.386835   -0.767007
C      2.695675    0.087140   -1.472681
C      1.492846    0.351081   -0.812062
O      4.989943   -0.638764   -1.477010
C      6.193033   -1.121802   -0.888252
C     -1.634913   -0.306905   -0.472769
C     -2.469969    0.444284   -1.315114
C     -2.887172   -0.076437   -2.542646
C     -2.474851   -1.350154   -2.939187
C     -1.647080   -2.108053   -2.107383
C     -1.226516   -1.595308   -0.871465
O     -0.415592   -2.364946   -0.037415
H     -5.130316    2.083638    1.906658
H     -3.701569    2.593632    0.930231
H     -3.648664    2.692132    2.736766
H     -3.916944    0.079575    1.105146
H     -3.811385    0.205962    2.890762
H     -1.508527    1.351056    3.839698
H      2.438034   -0.493957    2.351643
H      4.541519   -0.950552    1.198626
H      2.767230    0.258714   -2.539303
H      0.663183    0.746555   -1.382208
H      6.562032   -0.401444   -0.127892
H      6.018134   -2.114307   -0.421785
H      6.964483   -1.231266   -1.677702
H     -2.784588    1.439541   -1.029499
H     -3.527020    0.510123   -3.189156
H     -2.797698   -1.750892   -3.891360
H     -1.336102   -3.096162   -2.421741
H     -0.107414   -3.292464   -0.304439
