18

C     -2.024163    1.203418    0.275709
C     -1.332825    0.537770   -0.908590
N     -0.444120   -0.530616   -0.445956
C      1.010930   -0.429620   -0.618704
C      1.682307   -0.096784    0.714293
O      3.066926    0.033693    0.541241
N     -1.021707   -1.681588    0.120376
O     -0.323146   -2.648138    0.489996
H     -1.267613    1.629560    0.968129
H     -2.647284    0.465463    0.823819
H     -2.679680    2.022895   -0.087165
H     -2.097060    0.110422   -1.592702
H     -0.769705    1.312770   -1.471856
H      1.267119    0.361061   -1.356777
H      1.407210   -1.388422   -1.017253
H      1.281592    0.866868    1.094131
H      1.460654   -0.882140    1.471587
H      3.430565   -0.886612    0.459529
