48

C      2.081342   -0.153811   -4.241545
O      1.286898    0.085447   -3.084135
C      1.737629   -0.053925   -1.760652
C      3.049649   -0.462427   -1.463489
C      3.476568   -0.589001   -0.132654
C      2.568164   -0.326964    0.899778
C      1.250340    0.087773    0.626354
C      0.832850    0.222084   -0.723116
O     -0.462243    0.621840   -1.110490
C     -1.582970    0.862705   -0.261579
C     -2.764355    1.337106   -1.129596
C     -4.013222    1.548244   -0.253997
C     -4.273063    0.297050    0.605436
C     -2.969348   -0.109562    1.337573
O     -1.930555   -0.341153    0.400628
C     -3.152815   -1.378454    2.182951
O     -3.451395   -2.484669    1.372451
O     -5.283692    0.585747    1.538858
O     -5.119011    1.803965   -1.081138
O     -2.437218    2.512598   -1.829040
O      0.356702    0.372059    1.670601
C      0.642914    0.232322    3.058369
C      4.849022   -1.029061    0.222937
C      5.908353   -0.886147   -0.586226
C      7.258811   -1.320995   -0.196448
O      7.477298   -1.874289    0.914355
H      2.958932    0.526659   -4.250091
H      1.471040    0.043161   -5.146552
H      2.416031   -1.212429   -4.263040
H      3.725090   -0.706687   -2.269141
H      2.902118   -0.435512    1.923152
H     -1.316392    1.668834    0.460782
H     -2.985824    0.543751   -1.878093
H     -3.832993    2.420779    0.419373
H     -4.589670   -0.528646   -0.076808
H     -2.679374    0.702285    2.046447
H     -2.202279   -1.586768    2.719166
H     -3.934727   -1.225180    2.962169
H     -4.440645   -2.547754    1.322744
H     -5.808480   -0.246707    1.668928
H     -5.807680    2.240487   -0.514715
H     -2.218721    3.212262   -1.159020
H     -0.258705    0.510108    3.641772
H      0.903397   -0.821907    3.290290
H      1.474843    0.908458    3.347456
H      4.998204   -1.445933    1.212589
H      5.806884   -0.414307   -1.553518
H      8.082298   -1.163432   -0.880073
