42

C      1.914576   -2.923516    2.774696
C      2.369127   -1.983021    1.711773
O      3.539162   -2.080229    1.251291
O      1.501966   -0.982164    1.260891
C      1.859281   -0.015098    0.269018
C      2.785388    1.077372    0.887926
C      2.074731    2.323934    1.390570
C      0.745722    2.477534    1.268410
C      0.025629    3.762683    1.365793
C     -1.278466    3.492783    0.608747
N     -1.416549    2.034118    0.403831
C     -0.136918    1.399943    0.788268
C      0.578976    0.617133   -0.331637
C     -0.422748   -0.329294   -0.953040
C     -0.136929   -1.671893   -1.298085
C     -1.150285   -2.417885   -1.893222
C     -2.373289   -1.892879   -2.159975
C     -2.692852   -0.572692   -1.858554
C     -1.701097    0.217996   -1.242083
C     -1.932560    1.679244   -0.940148
O     -3.167404   -2.854577   -2.754290
C     -2.395521   -4.058025   -2.868936
O     -1.115725   -3.735590   -2.307089
H      2.362913   -2.627596    3.747282
H      0.806534   -2.895240    2.860056
H      2.229763   -3.959408    2.523485
H      2.415963   -0.519653   -0.551920
H      3.500448    1.406340    0.103577
H      3.388914    0.652006    1.717064
H      2.680582    3.164208    1.717448
H     -0.168660    4.006830    2.432261
H      0.599290    4.581703    0.879643
H     -1.256105    4.049281   -0.355408
H     -2.144006    3.863778    1.197765
H     -0.346055    0.717665    1.641941
H      0.895255    1.325276   -1.132407
H      0.826478   -2.126448   -1.116422
H     -3.669226   -0.172541   -2.099969
H     -1.421077    2.270392   -1.732014
H     -3.018032    1.914602   -0.979823
H     -2.872882   -4.876181   -2.290192
H     -2.284309   -4.340890   -3.936522
