31

C     -2.575134    1.830929   -1.051144
C     -3.153584    0.450215   -0.757733
C     -1.941603   -0.474419   -0.659294
N     -0.820890    0.397085   -0.327844
C     -1.147831    1.803500   -0.515733
C      0.540731   -0.059556   -0.213600
C      1.365659    0.359095    0.857080
C      2.719445   -0.022603    0.874672
C      3.258035   -0.833308   -0.137492
C      2.423078   -1.260436   -1.181101
C      1.083052   -0.875145   -1.219544
N      4.643521   -1.223334   -0.099412
O      5.125611   -1.949645   -0.993392
O      5.462028   -0.800339    0.922895
N      0.837748    1.130211    1.949403
O      1.572471    1.925766    2.570675
O     -0.421117    0.870487    2.438695
C     -2.125475   -1.543757    0.380227
O     -2.089582   -2.757906    0.045344
O     -2.332923   -1.199458    1.712550
H     -2.558089    1.998886   -2.150645
H     -3.175398    2.632554   -0.568441
H     -3.709682    0.492765    0.205403
H     -3.848433    0.124337   -1.562205
H     -1.769670   -0.938732   -1.655071
H     -0.450430    2.270849   -1.244941
H     -1.091658    2.345089    0.450766
H      3.347735    0.295369    1.696720
H      2.809557   -1.883717   -1.977315
H      0.477158   -1.191629   -2.057489
H     -2.454329   -1.913155    2.420952
