13

C     -0.840219    1.002284   -0.224892
C     -0.371231   -0.380553    0.239964
C      1.106122   -0.613367   -0.099680
O      1.928152    0.253111    0.636962
O     -1.141927   -1.373426   -0.384906
H     -1.918589    1.132043    0.007017
H     -0.696353    1.113681   -1.320948
H     -0.277046    1.801791    0.301005
H     -0.491517   -0.451413    1.346526
H      1.375217   -1.656766    0.170607
H      1.279260   -0.499898   -1.195677
H      2.068359    1.062284    0.079399
H     -2.020229   -1.389772    0.078233
