42

C      5.481570    0.557973    1.015307
C      4.354283    0.596515   -0.012522
C      3.197582   -0.324059    0.400239
C      2.091338   -0.375696   -0.667661
C      1.028295   -1.368348   -0.289348
O      1.211174   -2.613617   -0.256921
N     -0.226141   -0.734921   -0.030553
C     -1.540841   -1.307409    0.064638
C     -2.634991   -0.434397   -0.089400
C     -3.939914   -0.928141   -0.008297
C     -4.163032   -2.286559    0.230051
C     -3.080647   -3.166058    0.386860
C     -1.768291   -2.669882    0.323799
C     -3.325151   -4.613105    0.698762
N     -2.414455    0.971716   -0.301934
C     -1.222347    1.493253   -0.373870
N     -0.075833    0.632554   -0.256321
C      1.258580    0.875827   -0.695173
O      1.649159    1.977158   -1.164869
N     -1.075037    2.913809   -0.529424
C     -0.246970    3.679292    0.403452
C     -1.912105    3.623098   -1.496632
H      6.299827    1.237002    0.695340
H      5.110175    0.892024    2.007583
H      5.889230   -0.471637    1.103416
H      3.994880    1.643392   -0.100889
H      4.756324    0.276346   -0.998392
H      3.598548   -1.351804    0.545210
H      2.774326    0.017943    1.371567
H      2.494451   -0.609974   -1.676710
H     -4.782580   -0.257606   -0.120838
H     -5.180369   -2.651349    0.300763
H     -0.945193   -3.346787    0.494844
H     -4.284454   -4.954361    0.254501
H     -2.511529   -5.245470    0.283792
H     -3.366276   -4.751561    1.799298
H     -0.895766    4.322611    1.034325
H      0.333055    3.008354    1.072464
H      0.461807    4.320730   -0.161423
H     -1.697602    4.713392   -1.484423
H     -1.709971    3.236419   -2.517632
H     -2.985108    3.473337   -1.252981
