13

C     -1.357182    0.764763   -0.084746
C     -0.655919   -0.591257   -0.008855
C      0.736479   -0.577525   -0.655733
C      1.747020    0.150533    0.182433
O      1.741258    1.369364    0.246408
H     -2.394341    0.665386    0.299206
H     -1.402742    1.120604   -1.135985
H     -0.829188    1.516003    0.537862
H     -0.581293   -0.914437    1.052595
H     -1.283940   -1.336422   -0.543728
H      1.076715   -1.629274   -0.769787
H      0.693247   -0.129473   -1.672202
H      2.509887   -0.408265    0.714792
