22

C     -2.235311    1.040115   -1.206987
C     -0.854407    0.674034   -0.724686
C     -0.638247   -0.392564    0.185169
C      0.683996   -0.693637    0.602229
C      1.769460    0.038688    0.085976
C      1.535907    1.100513   -0.795096
C      0.239298    1.418492   -1.189780
C      3.172985   -0.270268    0.528394
O      0.946489   -1.691917    1.547099
C     -1.779290   -1.195294    0.677894
O     -1.749727   -2.452921    0.599897
O     -2.899609   -0.565089    1.211376
H     -2.783513    1.570382   -0.400701
H     -2.193196    1.705149   -2.095945
H     -2.796742    0.128664   -1.501846
H      2.360552    1.689731   -1.177178
H      0.090844    2.245894   -1.872984
H      3.307273    0.046469    1.583927
H      3.366221   -1.360882    0.447377
H      3.923278    0.256459   -0.099160
H      0.224381   -2.188064    2.052055
H     -3.690642   -1.103954    1.542972
