38

C      0.590244    2.863104   -0.106788
C      0.386401    1.717001    0.900635
C      1.491320    1.745546    1.920067
O      1.359869    2.397684    2.989270
O      2.659305    1.025632    1.685920
C      2.948768    0.506750    0.392930
C      1.736442   -0.238345   -0.223217
C      0.333205    0.289757    0.247448
C     -0.715855    0.174112   -0.893586
C     -2.021338   -0.388356   -0.291687
C     -1.626637   -1.021051    1.059769
C     -0.135562   -0.756769    1.281850
C      0.710064   -1.950944    1.003892
C      1.723563   -1.673656    0.201556
C      2.701777   -2.677459   -0.258005
O      2.652973   -3.862500    0.166624
O      3.684271   -2.323217   -1.174169
C     -2.636995   -1.452502   -1.226097
C     -3.053415    0.742836   -0.088134
H      1.332936    2.593972   -0.885329
H      0.935038    3.784372    0.410806
H     -0.369783    3.119713   -0.600377
H     -0.568746    1.908359    1.435085
H      3.839472   -0.152945    0.459126
H      3.232509    1.351706   -0.269660
H      1.839928   -0.186797   -1.329908
H     -0.344545   -0.533392   -1.668499
H     -0.883636    1.122990   -1.439380
H     -2.195923   -0.561220    1.898344
H     -1.849735   -2.111335    1.100339
H      0.046144   -0.446900    2.334823
H      0.534574   -2.925979    1.441657
H     -2.870444   -1.010193   -2.218669
H     -1.932084   -2.298974   -1.377075
H     -3.575808   -1.857635   -0.790362
H     -3.982520    0.342395    0.371988
H     -3.320233    1.207700   -1.061771
H     -2.655545    1.536544    0.575622
