48

C      1.021970    1.696939    3.104532
O      0.997911    1.279610    1.743493
C     -0.014508    0.495866    1.162267
C      0.091862    0.139203   -0.195047
C     -0.935472   -0.617027   -0.808205
C     -2.094699   -0.971755   -0.076938
C     -2.144457   -0.677497    1.307041
C     -1.126795    0.068049    1.901500
O     -3.176247   -1.126991    2.132200
C     -3.243641   -1.691221   -0.772536
C     -4.554062   -0.927336   -0.696825
C     -5.661921   -1.535407   -0.073459
C     -6.874272   -0.854543    0.053147
C     -7.007075    0.436348   -0.454811
C     -5.935512    1.039863   -1.113184
C     -4.718436    0.363613   -1.263683
O     -3.712884    0.994674   -1.995687
O     -0.812526   -1.045653   -2.135161
C      1.264759    0.593573   -0.973945
O      1.084313    1.262632   -2.028212
C      2.632373    0.273215   -0.515035
C      3.723519    0.703555   -1.163719
C      5.109267    0.398446   -0.731440
C      6.145418    0.488677   -1.677114
C      7.467651    0.220269   -1.310284
C      7.771817   -0.130391    0.006545
C      6.755065   -0.206980    0.960636
C      5.430418    0.059525    0.599624
H      0.133583    2.324754    3.327485
H      1.936118    2.299625    3.281766
H      1.045097    0.811890    3.774785
H     -1.210380    0.300705    2.954473
H     -3.851386   -1.820212    1.846640
H     -3.343033   -2.699617   -0.315870
H     -3.031265   -1.880649   -1.844629
H     -5.587036   -2.538305    0.328265
H     -7.711772   -1.328985    0.548215
H     -7.946523    0.964139   -0.352774
H     -6.056990    2.032075   -1.529268
H     -2.863096    0.531145   -2.278625
H      0.022074   -0.913352   -2.691184
H      2.729295   -0.352926    0.361325
H      3.601163    1.275064   -2.076676
H      5.929650    0.759137   -2.703736
H      8.257110    0.285547   -2.047881
H      8.796165   -0.336022    0.289236
H      6.994384   -0.465864    1.984047
H      4.673008    0.022595    1.370203
