32

C     -2.749467    1.306616   -0.402230
C     -3.095786   -0.083468    0.183855
C     -3.858051    0.125591    1.503895
C     -1.821826   -0.934428    0.467494
C     -0.964933   -1.294365   -0.788236
C      0.371901   -0.749801   -0.435385
C      0.326133   -0.158165    0.794587
O     -0.932615   -0.239143    1.347185
C      1.446290    0.442043    1.366525
C      2.650826    0.428611    0.643168
C      2.702742   -0.187073   -0.638681
C      1.549004   -0.783001   -1.184344
C      3.917529   -0.180718   -1.329169
C      5.032247    0.422524   -0.747545
C      4.907424    1.008887    0.517118
O      5.904361    1.557335    1.055416
O      3.740935    0.991771    1.157350
O     -3.957093   -0.784149   -0.684170
H     -2.110949    1.884070    0.300129
H     -3.679656    1.886163   -0.585335
H     -2.212843    1.222223   -1.368662
H     -4.133383   -0.853151    1.952645
H     -3.242310    0.690198    2.236920
H     -4.795889    0.693958    1.322837
H     -2.125328   -1.884943    0.960985
H     -1.319830   -0.828734   -1.728670
H     -0.901576   -2.395962   -0.919954
H      1.385838    0.906360    2.342427
H      1.564511   -1.255676   -2.158912
H      4.003724   -0.637273   -2.307856
H      5.979765    0.434338   -1.272042
H     -3.581694   -0.750639   -1.601346
