16

C     -2.314862    0.229717    0.076531
C     -1.316271   -0.912537   -0.074592
C      0.073105   -0.380568   -0.270145
N      0.875843   -0.168847    0.808346
C      2.128198    0.339726    0.668668
C      2.600347    0.660785   -0.605214
N      1.798547    0.463113   -1.684271
C      0.545966   -0.046198   -1.547122
H     -2.320817    0.860550   -0.838075
H     -2.051651    0.858334    0.954105
H     -3.333607   -0.184868    0.228709
H     -1.347029   -1.548126    0.836766
H     -1.608007   -1.547224   -0.939526
H      2.750400    0.495820    1.539690
H      3.594346    1.067320   -0.735299
H     -0.074510   -0.186998   -2.422786
