14

C     -1.490255   -0.827529    0.249056
C     -0.798192    0.510934    0.505203
C      0.249885    0.840090   -0.565182
C      1.430498   -0.078293   -0.484738
O      1.548674   -1.029799   -1.302429
O      2.382328    0.103209    0.513665
H     -2.275743   -0.990952    1.016644
H     -1.968485   -0.830002   -0.753519
H     -0.760725   -1.662299    0.310829
H     -0.324655    0.498321    1.511313
H     -1.569190    1.311565    0.504641
H     -0.208550    0.788906   -1.577167
H      0.604027    1.881962   -0.411865
H      3.180383   -0.516113    0.589136
