33

C      4.267155    1.370272   -0.146461
C      3.037332    1.304231    0.758073
C      2.670349   -0.132944    1.167243
C      2.313362   -1.071859   -0.002986
C      1.159305   -0.587455   -0.899017
C     -0.164164   -0.428463   -0.135779
C     -1.319591   -0.117257   -1.100511
C     -2.637035    0.222420   -0.371549
C     -3.254986   -1.017083    0.298796
C     -4.536238   -0.669148    0.991968
O     -5.640248   -0.865630    0.417019
O     -4.504032   -0.092704    2.257859
O     -3.553602    0.742037   -1.301764
H      5.118473    0.825950    0.314732
H      4.561977    2.430891   -0.291597
H      4.044317    0.935129   -1.142760
H      3.255437    1.881080    1.682827
H      2.178032    1.802305    0.262320
H      3.527092   -0.575653    1.720674
H      1.822454   -0.096380    1.883632
H      2.045782   -2.066141    0.416593
H      3.213286   -1.231123   -0.634317
H      1.432389    0.368190   -1.394363
H      1.019871   -1.341467   -1.704590
H     -0.071695    0.402112    0.596038
H     -0.376055   -1.369703    0.413659
H     -1.479803   -0.977778   -1.786979
H     -1.029362    0.758030   -1.723008
H     -2.432916    0.985697    0.417127
H     -3.445129   -1.805957   -0.461915
H     -2.560594   -1.432764    1.057691
H     -5.360817    0.161886    2.734564
H     -3.300348    1.689281   -1.459085
