46

C     -2.215122   -1.081759    1.313282
C     -2.069773   -0.770186   -0.212716
C     -1.302729   -1.914226   -0.909965
C      0.181082   -1.959045   -0.465997
C      0.907006   -0.584102   -0.598739
C      0.087953    0.560612    0.072052
C     -1.338565    0.548260   -0.519902
C     -2.333033    1.641172   -0.126023
C     -3.717677    1.014917   -0.456905
C     -3.458529   -0.473691   -0.813299
O     -4.457157   -1.311685   -0.289713
O     -4.384055    1.682150   -1.502083
O     -2.098162    2.816156   -0.859529
C      0.812881    1.891100   -0.166928
C      2.158423    1.892268    0.562578
C      2.945905    0.613258    0.384280
C      2.349480   -0.588661   -0.087543
C      3.166876   -1.732443   -0.223273
C      4.506428   -1.708302    0.167819
C      5.070843   -0.540672    0.676022
C      4.292541    0.614958    0.783327
O      6.407856   -0.536782    1.067568
H     -2.777894   -2.028483    1.457336
H     -2.764934   -0.281182    1.849083
H     -1.245352   -1.220252    1.825709
H     -1.786055   -2.889984   -0.685673
H     -1.336170   -1.778012   -2.013853
H      0.672163   -2.707546   -1.120938
H      0.262502   -2.332308    0.576292
H      0.970939   -0.368004   -1.689506
H      0.042866    0.406626    1.170430
H     -1.219833    0.632401   -1.629331
H     -2.246865    1.847877    0.966387
H     -4.355931    1.076269    0.452032
H     -3.412329   -0.602954   -1.921072
H     -5.277169   -1.136807   -0.821013
H     -3.811619    1.627316   -2.311706
H     -2.633529    3.529591   -0.424075
H      0.212291    2.737187    0.228062
H      0.971724    2.056667   -1.255671
H      1.978516    2.040280    1.649902
H      2.756612    2.755983    0.198422
H      2.789142   -2.653854   -0.637803
H      5.110958   -2.600960    0.067108
H      4.738745    1.520509    1.177067
H      6.848750    0.296340    1.439635
