10

H     -1.029338   -0.415299    0.976263
C     -0.609667   -0.381094   -0.053601
H     -0.992842   -1.261153   -0.614942
C      0.882102   -0.443789    0.007283
O      1.534165   -0.914438   -0.962772
O      1.552183    0.060169    1.117481
H      2.563797    0.039951    1.166965
N     -1.027882    0.844336   -0.724649
H     -0.802915    1.652710   -0.099487
H     -2.069602    0.818608   -0.812543
