24

C      0.450372   -1.721609    0.513959
C      1.654558   -0.778793    0.639759
C      1.155292    0.660460    0.813584
C      0.154400    1.014373   -0.304473
C     -0.953094   -0.071019   -0.410070
O     -0.373055   -1.362315   -0.582386
C     -1.828359    0.224149   -1.647301
O     -2.781863   -0.788093   -1.837711
O     -1.763678   -0.026904    0.744597
O     -0.431817    2.264612   -0.038457
O      2.251370    1.539050    0.784513
O      2.461833   -0.872444   -0.506852
H      0.821626   -2.754712    0.346389
H     -0.126550   -1.748959    1.465061
H      2.246242   -1.058967    1.542545
H      0.641455    0.730708    1.802814
H      0.706843    1.050717   -1.274877
H     -1.187529    0.264486   -2.554344
H     -2.326378    1.216958   -1.548107
H     -3.584266   -0.531904   -1.312409
H     -2.324553   -0.846065    0.749521
H      0.187964    2.956835   -0.388121
H      1.977544    2.360331    1.270419
H      2.971644   -1.720896   -0.429454
