17

C      0.530437   -0.551849    0.554850
C      1.644523    0.476031    0.336886
O      2.626757    0.313800    1.321559
C     -0.554964   -0.483298   -0.537656
C     -1.299133    0.822080   -0.468182
O     -1.177245    1.668260   -1.394069
O     -2.111996    1.103656    0.626188
N     -1.499451   -1.588298   -0.369132
H      0.072095   -0.395991    1.556573
H      0.988370   -1.565457    0.547562
H      2.097607    0.326937   -0.668975
H      1.226645    1.505500    0.398208
H      3.322090    0.996160    1.131934
H     -0.068149   -0.577543   -1.536188
H     -2.613420    1.981585    0.688525
H     -2.201000   -1.543362   -1.144465
H     -0.983168   -2.488211   -0.504149
