26

C      3.013043    0.968281    1.044648
C      2.842610    0.957607   -0.342322
C      1.864451    0.143916   -0.922080
C      1.046344   -0.664737   -0.114893
C      1.228013   -0.652245    1.278772
C      2.206955    0.163563    1.854233
C     -0.020576   -1.527424   -0.739018
C     -1.199957   -0.709365   -1.295730
C     -2.085040   -0.066899   -0.197784
C     -1.436639    1.148363    0.414385
O     -1.038764    2.091100   -0.320643
O     -1.302241    1.262569    1.795606
N     -3.389241    0.318050   -0.740751
H      3.769746    1.599747    1.491923
H      3.468005    1.580719   -0.968443
H      1.741624    0.145868   -1.998023
H      0.606016   -1.264577    1.919749
H      2.339033    0.173530    2.928407
H      0.437560   -2.100395   -1.574417
H     -0.398134   -2.279409   -0.011852
H     -1.827965   -1.411154   -1.887083
H     -0.833916    0.062159   -2.008080
H     -2.258034   -0.821167    0.601638
H     -1.618893    0.530683    2.419966
H     -3.903441   -0.546840   -1.027200
H     -3.250557    0.898056   -1.601010
