42

C      5.602515    1.127123   -1.269185
C      5.094029    0.119815   -0.270668
C      6.007938   -0.709480    0.393931
C      5.539951   -1.644070    1.320130
O      6.353076   -2.393138    1.922074
O      4.240614   -1.749736    1.572045
C      3.329009   -0.990519    0.972262
C      3.717823   -0.018310    0.020904
C      2.725334    0.768780   -0.593141
C      1.377632    0.590416   -0.267851
C      0.992103   -0.381794    0.675544
C      1.978027   -1.161041    1.290062
O     -0.345366   -0.606563    1.046895
C     -1.506705   -0.018309    0.455011
C     -1.898949   -0.802846   -0.815792
C     -3.196183   -0.219062   -1.404575
C     -4.277316   -0.124251   -0.312744
C     -3.709594    0.587604    0.943199
O     -2.555260   -0.095105    1.404604
C     -4.735136    0.608038    2.088947
O     -5.835302    1.418988    1.774374
O     -5.417149    0.532855   -0.810396
O     -3.665123   -1.037056   -2.445866
O     -0.868814   -0.722609   -1.766210
H      5.322819    2.151616   -0.945275
H      6.708510    1.087844   -1.365572
H      5.163937    0.920640   -2.268062
H      7.071065   -0.633377    0.197372
H      2.978689    1.524612   -1.324593
H      0.651482    1.217629   -0.762556
H      1.690363   -1.908005    2.019898
H     -1.301530    1.049920    0.219088
H     -2.071531   -1.867151   -0.524778
H     -2.986866    0.808759   -1.788874
H     -4.574720   -1.157952   -0.026502
H     -3.457736    1.647007    0.700307
H     -5.094899   -0.423250    2.292591
H     -4.248849    0.978581    3.020393
H     -5.528657    2.359591    1.857558
H     -5.154197    1.463818   -1.034939
H     -3.170743   -0.774387   -3.265730
H     -0.944289   -1.525624   -2.344902
