22

C     -1.496843    2.070437   -0.000180
C     -0.811341    0.736530   -0.009651
C     -1.406512   -0.527364   -0.126244
N     -0.455835   -1.494695   -0.115447
C      0.722857   -0.860077   -0.001123
C      1.989687   -1.441723    0.038969
C      3.102549   -0.589536    0.150781
C      2.927183    0.809709    0.216162
C      1.637562    1.369664    0.170891
C      0.550037    0.499154    0.062841
C     -2.855546   -0.801570   -0.268376
O     -3.658558    0.143652   -0.483447
O     -3.362475   -2.095971   -0.171490
H     -2.305984    2.070852    0.759366
H     -0.788219    2.884381    0.253325
H     -1.928918    2.272961   -1.002113
H     -0.589557   -2.525930   -0.203843
H      2.114433   -2.515497   -0.015204
H      4.099553   -1.009051    0.185022
H      3.790949    1.456309    0.300067
H      1.504741    2.441947    0.216913
H     -2.779763   -2.894184    0.042781
