49

C     -5.947305   -1.831550   -0.301606
N     -4.630858   -2.327959    0.117850
C     -4.499594   -3.732163    0.525742
C     -3.478636   -1.444939    0.129073
C     -2.170363   -1.963434    0.071214
C     -1.055384   -1.118278    0.081414
C     -1.226993    0.287430    0.146417
C     -2.535243    0.804417    0.211525
C     -3.640656   -0.048353    0.200795
C     -0.084938    1.125269    0.154683
C      1.190594    0.529813    0.100112
C      2.388239    1.252962    0.088305
C      3.618384    0.592379    0.031015
C      3.720089   -0.826586   -0.021587
N      4.902654   -1.432599   -0.073385
C      5.016838   -2.903883   -0.128716
C      6.165380   -0.667007   -0.077529
C      2.509117   -1.571026   -0.018467
C      1.266446   -0.941325    0.036965
O      0.155595   -1.661769    0.030534
C     -0.222279    2.598638    0.216891
C     -0.558453    3.324763   -0.935853
C     -0.686947    4.715836   -0.875283
C     -0.479687    5.386431    0.333984
C     -0.143754    4.666844    1.484779
C     -0.014980    3.275619    1.428392
H     -6.368557   -1.169222    0.483236
H     -6.661796   -2.664137   -0.473965
H     -5.853198   -1.270087   -1.255368
H     -5.491583   -4.206684    0.681277
H     -3.960151   -4.304011   -0.257913
H     -3.944993   -3.796578    1.485964
H     -2.001684   -3.029846    0.007466
H     -2.717211    1.869194    0.276922
H     -4.624491    0.395597    0.262301
H      2.388146    2.334960    0.120826
H      4.493501    1.226061    0.027952
H      6.071395   -3.247790   -0.166498
H      4.561611   -3.356153    0.778344
H      4.517600   -3.291034   -1.042715
H      6.205943   -0.003116   -0.967535
H      6.250608   -0.066833    0.853629
H      7.060123   -1.322152   -0.122391
H      2.501677   -2.651062   -0.060629
H     -0.720317    2.813177   -1.876692
H     -0.946821    5.273985   -1.765397
H     -0.579222    6.463205    0.379244
H      0.016677    5.187118    2.420165
H      0.245477    2.725879    2.324519
