16

C      0.579458    0.040927    0.296935
C     -0.709403   -0.551331   -0.321872
C     -1.935061    0.121669    0.231166
O     -2.293141   -0.085221    1.420968
O     -2.664560    0.997839   -0.562596
O     -0.774349   -1.928170   -0.048221
C      1.787968   -0.707386   -0.204227
O      2.490417   -1.382705    0.593442
O      2.129875   -0.664793   -1.550745
N      0.717098    1.471092   -0.013728
H      0.527744   -0.077996    1.404201
H     -0.679711   -0.393526   -1.425978
H     -1.437467   -2.315835   -0.677933
H      1.626560    1.829677    0.359386
H      0.685058    1.630619   -1.047366
H     -0.050486    2.015140    0.442133
