39

C     -3.736506   -1.298567    1.063538
C     -3.524115   -0.349928   -0.130243
C     -4.883375    0.214520   -0.580761
C     -2.451680    0.749925    0.166872
C     -2.064559    1.509972   -1.067924
O     -2.793946    2.323291   -1.695019
N     -0.714730    1.265999   -1.402417
C     -0.268927    0.389039   -0.380145
N     -1.175308    0.110148    0.506256
C      1.136917   -0.045754   -0.260718
N      2.096580    0.813033   -0.702556
C      3.423498    0.563059   -0.562332
C      4.365975    1.483325   -1.035733
C      5.731997    1.228587   -0.878346
C      6.159897    0.055942   -0.247472
C      5.224007   -0.868242    0.228560
C      3.851506   -0.618405    0.074436
C      2.891456   -1.528655    0.527345
C      1.522248   -1.270080    0.345442
C      0.549413   -2.321247    0.717741
O      0.762182   -3.056704    1.718006
O     -0.572839   -2.555578   -0.067776
C     -2.843410    1.725490    1.290900
H     -4.377497   -2.152939    0.757623
H     -4.236911   -0.776518    1.905731
H     -2.771852   -1.714684    1.420421
H     -3.139050   -0.974189   -0.968425
H     -5.350629    0.826223    0.218513
H     -4.779292    0.826057   -1.498532
H     -5.576015   -0.619814   -0.822974
H     -0.160107    1.688856   -2.179439
H      4.042942    2.394872   -1.523288
H      6.459816    1.940900   -1.244877
H      7.218162   -0.137220   -0.128106
H      5.570654   -1.773236    0.712993
H      3.210573   -2.456787    0.988718
H     -3.751420    2.303349    1.021098
H     -3.025154    1.183070    2.241130
H     -2.020503    2.450821    1.471760
