39

C     -3.674751   -1.798415   -0.352762
C     -3.498821   -0.468127    0.401849
C     -4.880948    0.158452    0.659284
C     -2.493800    0.494125   -0.313796
C     -2.128257    1.669071    0.545300
O     -2.890416    2.621645    0.859075
N     -0.761989    1.624152    0.898470
C     -0.286003    0.455421    0.250087
N     -1.190135   -0.167194   -0.442613
C      1.139337    0.069979    0.248685
N      2.057152    1.073720    0.310102
C      3.393444    0.850222    0.226219
C      4.291012    1.922110    0.294779
C      5.666409    1.689643    0.195254
C      6.148432    0.387646    0.026056
C      5.257582   -0.688519   -0.043708
C      3.875914   -0.462090    0.054902
C      2.960598   -1.517945    0.002282
C      1.582676   -1.273783    0.123807
C      0.669744   -2.436779    0.193230
O     -0.343817   -2.414953    0.940232
O      0.962793   -3.596130   -0.515216
C     -2.957725    0.972977   -1.700881
H     -2.693644   -2.273121   -0.560432
H     -4.211782   -1.646596   -1.312309
H     -4.266040   -2.507765    0.264989
H     -3.067687   -0.721531    1.397078
H     -5.521608   -0.558451    1.216180
H     -4.797994    1.070694    1.282205
H     -5.393851    0.407867   -0.292619
H     -0.218583    2.325402    1.449050
H      3.925823    2.933596    0.423281
H      6.359477    2.519271    0.248462
H      7.213767    0.212358   -0.050238
H      5.646028   -1.691691   -0.172582
H      3.323877   -2.534970   -0.096109
H     -3.126718    0.113289   -2.380983
H     -3.890792    1.568956   -1.627219
H     -2.178704    1.617464   -2.163203
