23

C      3.469544    0.282105    0.545020
C      2.027455    0.321981    0.046003
C      1.191952   -0.813043    0.664729
C     -0.266961   -0.659085    0.303067
C     -0.830792    0.627344    0.155413
C     -2.209368    0.758215   -0.118853
C     -3.007417   -0.389324   -0.229460
C     -2.447853   -1.657449   -0.066724
C     -1.085931   -1.793556    0.205238
O     -2.785146    2.017491   -0.286468
C      0.069735    1.796101    0.289962
O     -0.383750    2.967566    0.378312
O      1.449748    1.589918    0.358234
H      3.502379    0.424685    1.646341
H      3.937781   -0.692295    0.289335
H      4.055519    1.092995    0.062875
H      2.033098    0.197662   -1.059933
H      1.578953   -1.790294    0.300617
H      1.281978   -0.790026    1.772583
H     -4.065515   -0.298432   -0.439821
H     -3.072951   -2.537505   -0.146402
H     -0.669920   -2.783921    0.343255
H     -3.772537    2.128867   -0.485447
