44

C     -2.549633    1.844620    1.549735
C     -1.875328    1.786811    0.168426
C     -0.561525    0.984764    0.190282
C     -0.795037   -0.535361    0.179754
C     -1.627424   -0.938384   -1.046333
C     -2.998004   -0.214231   -1.128247
C     -2.817231    1.325686   -0.971071
C     -3.985706   -0.779670   -0.080655
C     -3.607842   -0.488137   -2.522304
O      0.460211   -1.212546    0.116209
C      1.331529   -1.328948    1.204991
O      0.999745   -0.900853    2.344938
C      2.696059   -1.913476    0.987661
C      3.646139   -0.818267    0.570069
C      3.981816   -0.652232   -0.785514
C      4.829997    0.386711   -1.181103
C      5.341496    1.274358   -0.231156
C      5.002091    1.127894    1.116122
C      4.154324    0.090790    1.516921
O      3.163527   -2.533274    2.158668
H     -1.963177    2.510965    2.217896
H     -2.594472    0.856060    2.041638
H     -3.575600    2.262012    1.470636
H     -1.600342    2.840210   -0.066560
H      0.042562    1.260987   -0.702622
H      0.033833    1.270759    1.084195
H     -1.322920   -0.853462    1.102885
H     -1.030678   -0.709274   -1.958229
H     -1.783305   -2.039962   -1.030622
H     -2.380280    1.723073   -1.915216
H     -3.808042    1.820810   -0.868954
H     -4.213577   -1.845810   -0.297310
H     -4.941931   -0.213842   -0.098879
H     -3.585100   -0.745458    0.945682
H     -3.750530   -1.578813   -2.684013
H     -4.595472    0.012324   -2.623324
H     -2.945110   -0.108751   -3.330116
H      2.629900   -2.676871    0.177428
H      3.585107   -1.323911   -1.536695
H      5.087377    0.506179   -2.225602
H      5.996435    2.078882   -0.539778
H      5.392368    1.821142    1.849996
H      3.890500   -0.001097    2.563187
H      2.643251   -3.372404    2.266981
