20

C     -1.372739    0.069557   -1.169314
C     -1.827085   -0.199796    0.265306
C     -0.629920    0.078870    1.170562
C      0.606044    0.088265    0.252869
C      0.059227    0.586345   -1.088676
C      1.203863   -1.299340    0.073035
O      0.550675   -2.331208    0.385330
O      2.464505   -1.453612   -0.499654
N      1.640060    0.996710    0.766710
H     -2.033122    0.813953   -1.665378
H     -1.396106   -0.875856   -1.755031
H     -2.682730    0.456151    0.537842
H     -2.144840   -1.260385    0.370383
H     -0.769625    1.078351    1.639712
H     -0.550388   -0.669193    1.989617
H      0.034940    1.698881   -1.108442
H      0.664876    0.239733   -1.955385
H      3.007417   -0.655705   -0.806939
H      1.925070    0.676692    1.721618
H      1.249879    1.961588    0.875835
