31

C      2.460095   -1.695980   -0.439938
C      2.267812   -0.561637    0.578752
C      1.209669    0.469201    0.123062
C     -0.216029   -0.105935    0.119760
C     -1.246522    0.988775   -0.217531
C     -2.730527    0.517488   -0.239414
C     -2.947953   -0.579788   -1.295794
C     -3.181751   -0.005791    1.140717
O     -3.543566    1.609071   -0.602381
C      3.587511    0.119731    0.869189
C      4.288836    0.771866   -0.065846
H      2.675653   -1.290567   -1.451396
H      1.550908   -2.329650   -0.493449
H      3.303393   -2.349718   -0.129559
H      1.923263   -1.019290    1.532630
H      1.236862    1.336102    0.820690
H      1.457423    0.845334   -0.893982
H     -0.275246   -0.913236   -0.637329
H     -0.432604   -0.531463    1.121872
H     -0.996204    1.419753   -1.212396
H     -1.144026    1.810735    0.525356
H     -4.033561   -0.789265   -1.409006
H     -2.555292   -0.252230   -2.282256
H     -2.450166   -1.529236   -1.007174
H     -2.684026   -0.965452    1.393493
H     -2.949004    0.735887    1.934515
H     -4.279093   -0.180936    1.140582
H     -3.443040    2.313409    0.091220
H      3.981483    0.078123    1.880601
H      3.935482    0.840242   -1.089591
H      5.230220    1.244458    0.194605
