43

C      4.821479    1.220278   -0.969262
N      3.532353    1.109248   -0.269042
C      3.197685   -0.310391   -0.060267
C      1.932991   -0.445517    0.790854
C      0.793448    0.400633    0.249954
C     -0.505623    0.015221    0.395057
C     -1.635799    0.840895   -0.067320
C     -1.900476    2.070387    0.560029
C     -2.957790    2.870791    0.125397
C     -3.762232    2.449292   -0.933195
C     -3.520596    1.219492   -1.550135
C     -2.475414    0.389951   -1.109329
C     -2.257271   -0.895972   -1.817057
C     -1.853074   -2.046927   -1.255380
C     -1.546471   -2.255183    0.181524
C     -1.863348   -3.499431    0.752743
C     -1.582055   -3.758577    2.096297
C     -0.972418   -2.782368    2.884178
C     -0.629023   -1.549952    2.326776
C     -0.888662   -1.286525    0.970878
C      1.153832    1.773116   -0.291810
C      2.473364    1.752054   -1.066731
H      5.090337    2.289569   -1.108341
H      5.628286    0.757794   -0.360842
H      4.786773    0.722459   -1.964420
H      4.026568   -0.822247    0.477853
H      3.050098   -0.834034   -1.033502
H      2.153577   -0.120320    1.830303
H      1.671925   -1.524576    0.811155
H     -1.282378    2.410036    1.382163
H     -3.151161    3.820476    0.607198
H     -4.577299    3.074410   -1.274382
H     -4.160480    0.907620   -2.366879
H     -2.544023   -0.935858   -2.861677
H     -1.845467   -2.925020   -1.890947
H     -2.342571   -4.268787    0.159258
H     -1.841049   -4.716824    2.527807
H     -0.762102   -2.982123    3.926914
H     -0.154659   -0.801003    2.949162
H      0.378266    2.159087   -0.986398
H      1.240559    2.479522    0.561611
H      2.327373    1.223812   -2.037719
H      2.752526    2.805491   -1.292473
