23

C     -3.744537    0.510537   -0.079524
N     -2.438899   -0.122950    0.083773
C     -2.315629   -1.491595    0.593678
N     -1.295880    0.617486   -0.264796
N     -0.127568    0.129399   -0.144315
C      1.027813    0.886644   -0.501988
C      2.339583    0.471303   -0.382820
N      3.122716    1.500227   -0.748988
C      2.280279    2.496443   -1.087105
N      0.980360    2.159760   -0.943465
C      2.858317   -0.828431    0.090394
O      4.061353   -0.912084    0.454789
N      2.039345   -1.999165    0.124747
H     -4.570497   -0.165966    0.225043
H     -3.890325    0.788766   -1.144272
H     -3.791322    1.427901    0.543856
H     -1.711348   -1.488649    1.525001
H     -1.812896   -2.127336   -0.165051
H     -3.307717   -1.935018    0.820878
H      4.166386    1.529440   -0.771753
H      2.610025    3.468208   -1.430047
H      2.416737   -2.885249    0.528134
H      1.103702   -2.029670   -0.333499
