21

C     -2.446591    0.033873   -0.068639
C     -0.936015    0.013564   -0.065464
C     -0.203210    1.228713   -0.109624
C      1.191019    1.201664    0.053672
C      1.870892   -0.007214    0.215875
C      1.159170   -1.208486    0.194179
C     -0.234543   -1.218079    0.031937
N     -0.913988   -2.484649   -0.035226
O     -1.836723   -2.664327   -0.856634
O     -0.416570   -3.569486    0.649777
N      3.292326   -0.016594    0.376675
N     -0.854719    2.492692   -0.329345
O     -0.400097    3.532236    0.191725
O     -1.853808    2.604601   -1.268854
H     -2.821827   -0.035554   -1.110978
H     -2.836742    0.958336    0.405452
H     -2.858838   -0.804289    0.530782
H      1.754131    2.126790    0.034660
H      1.697972   -2.143727    0.284009
H      3.835890    0.875248    0.385819
H      3.812271   -0.915312    0.490204
