13

C     -0.578109   -1.240114    0.627030
C     -0.220490   -0.108852   -0.339144
C     -1.277188    0.959531   -0.308189
O     -1.863710    1.279627   -1.329866
C      1.116210    0.482781    0.003946
O      1.308682    1.017757    1.129814
O      2.149086    0.441190   -0.927558
H     -1.549405   -1.695089    0.336677
H     -0.658489   -0.861590    1.669241
H      0.200823   -2.031804    0.591807
H     -0.165629   -0.538531   -1.364531
H     -1.519269    1.459696    0.624762
H      3.057487    0.835398   -0.713989
