48

C     -6.708798    0.828130    2.690143
C     -5.574749    1.212078    1.743205
C     -4.346428    0.317037    1.965232
C     -3.160401    0.706275    1.068531
C     -3.343917    0.236031   -0.384913
C     -2.189314    0.666100   -1.308129
C     -0.803924    0.110295   -0.930063
C     -0.750859   -1.421495   -0.930480
C      0.652993   -1.893585   -0.704012
O      1.067632   -2.061389    0.475908
N      1.527776   -2.111795   -1.819902
C      2.943021   -2.433905   -1.657290
C      3.737114   -1.170093   -1.466565
C      4.019705   -0.693839   -0.175522
C      4.732671    0.509914    0.005194
C      5.155665    1.232653   -1.119962
C      4.858958    0.766208   -2.407297
C      4.148349   -0.424327   -2.579987
O      5.868416    2.419019   -0.949856
O      5.033694    1.018205    1.279234
C      4.612372    0.424722    2.503788
H     -6.998084   -0.235010    2.533352
H     -6.394574    0.972616    3.747641
H     -7.593491    1.469866    2.491256
H     -5.302726    2.276262    1.921434
H     -5.941097    1.111594    0.699777
H     -4.614176   -0.748684    1.791850
H     -4.025335    0.413094    3.025675
H     -3.004348    1.807815    1.098944
H     -2.255451    0.222659    1.492373
H     -3.469536   -0.867537   -0.417113
H     -4.273886    0.678413   -0.798088
H     -2.430002    0.345146   -2.344275
H     -2.133609    1.776117   -1.318100
H     -0.072361    0.492354   -1.677993
H     -0.487348    0.503795    0.060022
H     -1.122527   -1.814294   -1.900360
H     -1.395306   -1.826947   -0.122520
H      1.160212   -1.975618   -2.790149
H      3.303315   -2.967371   -2.564781
H      3.085256   -3.130315   -0.801619
H      3.686109   -1.264720    0.680218
H      5.178531    1.326607   -3.276728
H      3.921433   -0.767812   -3.583397
H      6.182466    2.967919   -1.741868
H      4.962686    1.050821    3.350491
H      3.502672    0.368953    2.540156
H      5.051202   -0.590573    2.606546
