19

C     -1.342661    1.675026    0.107127
C     -1.979888    0.702458   -0.546177
C     -1.386272   -0.679237   -0.635373
C      0.165817   -0.637771   -0.664725
C      0.729895    0.366072    0.332943
C      0.011702    1.461833    0.647198
C      2.127105    0.237446    0.816777
O      2.553332    0.973477    1.748218
O      2.987419   -0.692187    0.239093
O      0.673490   -1.922320   -0.407119
O     -1.857179   -1.472172    0.426694
H     -1.821196    2.637015    0.238673
H     -2.976419    0.879441   -0.931112
H     -1.737597   -1.141529   -1.582843
H      0.492989   -0.304627   -1.677466
H      0.428270    2.235457    1.280475
H      3.943749   -0.786044    0.559806
H      0.515858   -2.461773   -1.225741
H     -1.528414   -1.070565    1.273550
