43

C      3.376326    1.023367    2.488333
C      1.953492    0.642830    2.863215
O      1.159631    0.563353    1.685355
C     -0.195399    0.214764    1.703851
O     -0.755594   -0.056160    2.803202
C     -0.957974    0.073348    0.393946
C     -2.482345    0.312584    0.671809
C     -3.358791    0.143242   -0.586377
C     -2.906621   -0.973688   -1.492534
C     -1.750904   -1.636274   -1.328353
C     -0.875438   -1.425457   -0.095864
N      0.537580   -1.917008   -0.202580
C      0.942594   -2.506494   -1.493340
C      0.890949   -2.840668    0.890799
C     -0.379312    1.110211   -0.620829
C      0.888739    0.919939   -1.224517
C      1.422290    1.854405   -2.115828
C      0.733698    3.030400   -2.394105
C     -0.472704    3.290459   -1.752325
C     -1.010709    2.360162   -0.858716
H      3.806255    0.257385    1.808509
H      3.382655    2.009184    1.976762
H      4.001637    1.086608    3.403668
H      1.960763   -0.342393    3.378107
H      1.533892    1.411533    3.547708
H     -2.669090    1.298707    1.146169
H     -2.845924   -0.427000    1.420830
H     -3.378482    1.079675   -1.178233
H     -4.405159   -0.057402   -0.271612
H     -3.527073   -1.212225   -2.351323
H     -1.552619   -2.442093   -2.024852
H     -1.396636   -2.038492    0.678304
H      0.446424   -3.487406   -1.662325
H      2.042478   -2.664110   -1.506595
H      0.715551   -1.813532   -2.331050
H      0.321694   -3.792469    0.803717
H      1.979656   -3.063159    0.870950
H      0.672882   -2.382237    1.877627
H      1.517652    0.086604   -0.977647
H      2.387588    1.675632   -2.572105
H      1.152086    3.755970   -3.079679
H     -0.987628    4.225225   -1.934095
H     -1.918110    2.652677   -0.357978
