19

C     -1.569021   -0.430320   -0.507266
C     -0.114484   -0.516987   -0.975136
C      0.841839   -0.382311    0.221525
N      0.516233    0.792815    1.037306
C     -0.817838    1.312040    1.128570
O     -1.101070    2.147946    2.027418
C     -1.858897    0.938419    0.113393
C      2.263519   -0.302300   -0.264846
O      2.723817    0.788501   -0.695637
O      3.067365   -1.438527   -0.292700
H     -2.245707   -0.588925   -1.374493
H     -1.773102   -1.231556    0.237114
H      0.050369   -1.497338   -1.473461
H      0.080646    0.287068   -1.719847
H      0.734222   -1.284265    0.863222
H      1.214396    1.113479    1.746652
H     -1.870543    1.712037   -0.684309
H     -2.861732    0.917261    0.592112
H      2.719987   -2.337038    0.020383
