29

C     -2.237616    1.234340   -0.679467
C     -2.600454    0.294975   -1.854269
O     -2.262564   -1.058454   -1.604289
C     -2.702501   -1.435832   -0.317141
C     -1.907524   -0.687648    0.773551
N     -1.323015    0.580528    0.276596
C      0.040366    0.401378   -0.278837
C      1.089452    0.785640    0.772935
C      2.541984    0.626429    0.235031
N      3.128230   -0.441418    1.035593
C      2.192947   -0.772183    2.035666
O      2.422365   -1.587292    2.967001
O      1.009997   -0.085363    1.898677
N      4.509089   -0.649958    1.174563
H     -1.798620    2.183892   -1.058152
H     -3.169704    1.518342   -0.142644
H     -2.042006    0.623505   -2.756116
H     -3.683554    0.378327   -2.094433
H     -2.551436   -2.529206   -0.195082
H     -3.795209   -1.246847   -0.202918
H     -1.120398   -1.357349    1.185031
H     -2.589389   -0.457888    1.620460
H      0.204991    1.055347   -1.165280
H      0.212097   -0.644697   -0.621501
H      0.918861    1.833305    1.104983
H      2.578473    0.353562   -0.841822
H      3.109754    1.568830    0.394344
H      4.903359    0.183333    1.667697
H      4.922024   -0.667597    0.214484
