33

C      0.647733    2.304309   -0.433016
C      1.836064    1.725516    0.354436
C      2.122576    0.257264    0.011368
C      3.404519   -0.226705    0.694714
C      3.658325   -1.667795    0.370560
O      4.438032   -1.972728   -0.569926
O      3.005511   -2.676362    1.073216
C     -0.704835    1.650802   -0.078051
C     -1.152842    0.633374   -1.145238
C     -2.465786   -0.097799   -0.790882
C     -2.282632   -1.079737    0.379048
C     -3.490964   -1.955014    0.534826
O     -4.391080   -1.643705    1.358516
O     -3.647874   -3.091091   -0.253692
O     -3.478865    0.825081   -0.480518
H      0.852368    2.243355   -1.524768
H      0.585197    3.386925   -0.186312
H      1.644710    1.825684    1.445526
H      2.734494    2.335524    0.114145
H      2.230041    0.147371   -1.090487
H      1.275096   -0.374080    0.355858
H      4.268190    0.386869    0.356299
H      3.311226   -0.113467    1.796561
H      2.357135   -2.458405    1.820461
H     -1.475232    2.450008   -0.013194
H     -0.647117    1.174912    0.922778
H     -0.355991   -0.118124   -1.324695
H     -1.304890    1.174541   -2.104999
H     -2.766590   -0.690521   -1.687462
H     -2.112378   -0.527378    1.327524
H     -1.396755   -1.726231    0.197677
H     -2.948278   -3.354486   -0.937370
H     -3.749107    1.252097   -1.335208
