38

C      5.532403   -0.121688    0.197199
C      4.505661   -0.672731    1.186293
C      3.172916   -1.040945    0.516423
C      2.377929    0.193636    0.065920
C      1.004457   -0.208762   -0.484751
C      0.205746    1.025764   -0.928348
C     -1.110910    0.665125   -1.639634
C     -2.102589   -0.174895   -0.807594
C     -2.530604    0.458516    0.540617
C     -3.247684    1.805291    0.346885
C     -3.388176   -0.521108    1.374665
C     -4.690570   -0.885515    0.716720
O     -5.709051   -0.167984    0.899485
O     -4.781045   -2.001396   -0.110547
H      5.675563   -0.827246   -0.648642
H      5.211416    0.865702   -0.194101
H      6.506307    0.012237    0.713467
H      4.334894    0.067739    1.997739
H      4.928861   -1.589089    1.652017
H      3.360336   -1.709002   -0.352866
H      2.565389   -1.610245    1.253809
H      2.239036    0.880141    0.930066
H      2.940551    0.730256   -0.727596
H      1.141515   -0.892240   -1.351504
H      0.444756   -0.747539    0.309646
H      0.821965    1.614046   -1.643205
H      0.006524    1.685874   -0.058091
H     -1.607209    1.602156   -1.970035
H     -0.868461    0.098431   -2.565116
H     -3.004950   -0.342409   -1.434615
H     -1.658715   -1.176495   -0.622617
H     -1.619881    0.649142    1.146879
H     -3.644670    2.174537    1.316429
H     -4.088590    1.706885   -0.371960
H     -2.539142    2.569722   -0.034039
H     -3.599054   -0.071321    2.369680
H     -2.806171   -1.448488    1.566786
H     -3.978750   -2.596101   -0.279923
