42

C      6.415535    1.793737   -1.212853
C      5.902416    0.488678   -1.820713
C      4.994748   -0.296210   -0.861562
C      3.638571    0.378218   -0.647411
O      2.811376   -0.468417    0.143858
C      1.504774   -0.124605    0.506109
O      1.023036    0.987962    0.156513
C      0.716924   -1.048247    1.353649
C      1.407091   -1.804056    2.318761
C      0.715188   -2.614268    3.219572
C     -0.675190   -2.682405    3.172178
C     -1.378685   -1.959177    2.208502
C     -0.700317   -1.153928    1.275544
C     -1.500052   -0.505446    0.211572
O     -1.027736   -0.374303   -0.951104
O     -2.807161   -0.091562    0.488711
C     -3.645347    0.516356   -0.488546
C     -4.998913    0.848444    0.141936
C     -5.918408    1.632566   -0.806516
C     -6.434950    0.781185   -1.965955
H      6.916188    1.599496   -0.240542
H      5.583063    2.512107   -1.063909
H      7.152060    2.257089   -1.902634
H      6.779280   -0.146505   -2.072273
H      5.362227    0.705634   -2.767854
H      5.503418   -0.433299    0.117705
H      4.821114   -1.305540   -1.294448
H      3.148409    0.558363   -1.629274
H      3.774512    1.347449   -0.121946
H      2.485853   -1.743553    2.398113
H      1.258562   -3.180858    3.964804
H     -1.209556   -3.307545    3.875955
H     -2.457178   -2.055293    2.172454
H     -3.783338   -0.187143   -1.337103
H     -3.163560    1.447928   -0.858439
H     -5.499507   -0.089009    0.469179
H     -4.822302    1.469039    1.047450
H     -6.793225    1.996635   -0.225329
H     -5.386566    2.523306   -1.206115
H     -6.927190   -0.138407   -1.584083
H     -7.179375    1.364088   -2.548206
H     -5.605789    0.501497   -2.648241
