48

C      4.714704    3.488775    0.266998
O      3.682668    2.613745   -0.176565
C      3.586210    1.258410    0.174039
C      2.513210    0.517270   -0.335724
C      2.355212   -0.852737   -0.021935
C      1.282220   -1.649655   -0.521857
C      1.200293   -2.993718   -0.104209
C      2.165026   -3.530888    0.743557
N      3.187471   -2.762729    1.188189
C      3.309119   -1.457239    0.837498
C      4.380986   -0.715110    1.341130
C      4.522862    0.631903    1.012743
C      0.198951   -1.082484   -1.442693
C     -0.881012   -0.290767   -0.636187
C     -1.714969   -1.122733    0.384275
C     -3.203005   -0.734522    0.248789
C     -3.637822   -1.109950   -1.179564
C     -2.799276   -0.293577   -2.195229
N     -1.768112    0.532601   -1.511548
C     -2.471558    1.520909   -0.653241
C     -3.373161    0.803157    0.402494
C     -3.091275    1.271652    1.814012
C     -3.312265    2.536789    2.183675
O     -0.323838   -2.075224   -2.295113
H      4.543370    4.497610   -0.161062
H      5.703319    3.119224   -0.078370
H      4.700376    3.565471    1.374760
H      1.812141    1.043444   -0.965176
H      0.396785   -3.639902   -0.427441
H      2.098937   -4.565742    1.052089
H      5.107279   -1.182837    1.994789
H      5.362063    1.178637    1.420443
H      0.679871   -0.360730   -2.132245
H     -0.286799    0.419882   -0.016963
H     -1.604394   -2.216044    0.241084
H     -1.357904   -0.921594    1.416924
H     -3.820968   -1.282140    0.993963
H     -4.720169   -0.893648   -1.316191
H     -3.493288   -2.199218   -1.350537
H     -3.477083    0.368571   -2.779104
H     -2.338438   -0.956505   -2.951787
H     -1.726408    2.191290   -0.168798
H     -3.097841    2.188268   -1.286204
H     -4.437654    1.049943    0.185871
H     -2.744312    0.568339    2.564857
H     -3.122558    2.845198    3.206604
H     -3.682632    3.269461    1.472963
H     -1.016332   -2.590856   -1.814003
