41

C      5.501456    0.554115    1.768220
C      5.503752   -0.310030    0.530948
C      4.492196    0.134549   -0.476770
N      3.148240    0.122350   -0.070678
C      1.894371    0.110974    0.308199
O      1.312311    0.715733    1.296130
C      0.844036   -0.717985   -0.468834
C      0.720989    0.003418   -1.777598
C     -0.778103    0.245552   -1.882453
C     -1.293688   -0.791978   -0.873474
O     -0.388718   -0.659627    0.146938
N     -2.643253   -0.535118   -0.470874
C     -3.714321   -0.619863   -1.315767
N     -4.850072   -0.347780   -0.657519
C     -4.485825   -0.084283    0.621588
C     -5.231529    0.261765    1.726369
N     -4.588420    0.473385    2.878508
C     -3.225468    0.351369    2.976580
N     -2.488446    0.013962    1.902121
C     -3.137779   -0.200966    0.723074
N     -6.627150    0.360644    1.577940
O     -1.258324   -0.054053   -3.154265
O      1.111401   -0.833069   -2.837847
H      6.556654    0.534372    2.181418
H      4.791942    0.226321    2.540957
H      5.347394    1.606869    1.437715
H      6.512879   -0.102822    0.046120
H      5.482305   -1.377187    0.752380
H      4.582756   -0.619872   -1.327015
H      4.833625    1.112979   -0.891367
H      3.474869    0.994706    0.944709
H      1.186608   -1.756711   -0.531979
H      1.283456    0.961030   -1.829581
H     -1.045793    1.287107   -1.556501
H     -1.164425   -1.782987   -1.346266
H     -3.681796   -0.868733   -2.367010
H     -2.833929    0.557678    3.959004
H     -7.043495    0.843068    0.758066
H     -7.254112   -0.051267    2.296063
H     -2.018140    0.530041   -3.385662
H      1.171546   -0.287654   -3.689723
