20

C      2.002858   -1.709050    0.037261
C      2.343960   -0.395997    0.404649
N      1.376245    0.560641    0.416103
C      0.091214    0.269500    0.079871
C     -0.918756    1.241248    0.085825
N     -2.184823    0.884164   -0.261253
C     -2.491613   -0.394234   -0.613614
N     -1.523074   -1.349011   -0.624476
C     -0.244668   -1.043951   -0.286507
N      0.718205   -2.001187   -0.299116
N     -3.829338   -0.732708   -0.971596
N     -0.644351    2.596844    0.448736
C      3.718392   -0.030554    0.776441
O      4.642575   -0.886562    0.778473
H      2.747504   -2.494154    0.017423
H     -4.578312   -0.005225   -0.965643
H     -4.072496   -1.711187   -1.243049
H     -1.412521    3.304051    0.446084
H      0.315067    2.906433    0.720527
H      3.943932    0.990943    1.053860
