37

C     -4.420660    0.081994    0.100278
C     -3.857763    0.789083   -1.121727
C     -2.449207    0.249727   -1.238140
C     -2.279285   -0.668383   -0.014016
O     -3.357564   -0.428050    0.868819
C     -0.923333   -0.249522    0.652243
C     -0.665841    1.054732   -0.014309
O      0.204174    1.885571    0.358555
O     -1.501362    1.290595   -1.080831
C      0.231642   -1.247004    0.354766
C      1.546498   -0.813700    0.943613
C      1.948398   -0.959125    2.268401
N      3.177594   -0.425396    2.450689
C      3.553553    0.059542    1.254629
C      4.745093    0.714315    0.945838
C      4.930132    1.153752   -0.377707
C      3.930827    0.933258   -1.351317
C      2.737873    0.269982   -1.011160
C      2.583901   -0.156922    0.308782
O     -1.067472   -0.047609    2.037662
O     -2.271047   -2.026286   -0.391640
O     -4.617120    0.475971   -2.259723
H     -5.088486   -0.757959   -0.194300
H     -5.012541    0.792095    0.716249
H     -3.856356    1.891077   -0.945939
H     -2.264548   -0.288682   -2.194827
H      0.342535   -1.384986   -0.742830
H     -0.019592   -2.241738    0.782483
H      1.370304   -1.425530    3.055450
H      3.718476   -0.392543    3.343331
H      5.503496    0.881920    1.699599
H      5.843397    1.666039   -0.650952
H      4.082941    1.278426   -2.365646
H      1.967152    0.104479   -1.752299
H     -1.291809   -0.927755    2.439224
H     -3.152336   -2.230060   -0.800150
H     -4.321663    1.098695   -2.974288
