37

C     -2.420995    1.184559    0.385801
C     -1.828055   -0.086238    0.494181
C     -2.656132   -1.220540    0.381385
C     -4.023896   -1.085273    0.111048
C     -4.597056    0.184781   -0.028705
C     -3.786377    1.332964    0.118779
O     -4.290942    2.631088    0.014721
O     -5.964043    0.261272   -0.307538
O     -4.827154   -2.217709   -0.018758
C     -0.344156   -0.175915    0.835637
C      0.312599   -1.550348    0.556901
C      1.825720   -1.515772    0.887301
C      2.515173   -0.290874    0.318861
C      3.915225   -0.258307    0.171183
C      4.536553    0.888426   -0.343719
C      3.772615    2.005267   -0.705084
C      2.384837    1.978395   -0.545569
C      1.755417    0.843501   -0.025803
O      0.364836    0.841822    0.122470
O      4.382960    3.146296   -1.221031
O      4.683793   -1.363566    0.536117
O      2.037696   -1.606013    2.275247
O      0.132582   -1.885632   -0.796760
H     -1.819306    2.076408    0.513795
H     -2.259650   -2.218005    0.496424
H     -5.260971    2.848898   -0.161409
H     -6.467629    1.126523   -0.438497
H     -4.447957   -3.152686    0.076072
H     -0.256266    0.038864    1.922114
H     -0.157758   -2.321312    1.210394
H      2.285039   -2.418516    0.428180
H      5.612609    0.911563   -0.461996
H      1.793819    2.842837   -0.821262
H      5.386911    3.198315   -1.348575
H      5.692505   -1.364299    0.439674
H      1.774888   -0.740919    2.684382
H      0.242568   -2.869855   -0.866796
