19

C     -1.893748   -0.670640   -0.486494
C     -1.456914    0.451979   -1.065983
C     -0.268397    1.201080   -0.504017
C      0.764414    0.230399    0.166270
C      0.049294   -0.823626    0.993579
C     -1.164215   -1.268177    0.646996
C      1.594095   -0.499193   -0.872113
O      1.202078   -0.592421   -2.066546
O      2.779401   -1.133548   -0.505936
O      1.651786    0.968695    0.974799
O     -0.717735    2.181425    0.399586
H     -2.794049   -1.148798   -0.850208
H     -2.010772    0.877809   -1.893184
H      0.229521    1.737134   -1.341201
H      0.566763   -1.290635    1.822954
H     -1.617872   -2.079751    1.201105
H      3.111909   -1.122545    0.450775
H      1.165870    1.262295    1.789801
H     -1.191428    1.718518    1.139816
