41

C     -1.272634    3.472989    2.637045
C     -1.256289    2.732135    1.340081
O     -0.937504    3.338915    0.281867
N     -1.565132    1.331357    1.313666
C     -1.449884    0.516258    0.099622
C     -2.595034   -0.508724    0.043004
C     -2.377630   -1.485437   -1.129224
C     -0.939793   -2.058268   -1.072563
O      0.007045   -1.003082   -1.090843
C     -0.094744   -0.213435    0.083052
O      0.932969    0.758896    0.072904
C      2.166243    0.174684    0.440863
C      3.278315    1.221043    0.304623
C      4.596678    0.680743    0.805535
O      5.175787    1.249060    1.768541
O      5.191619   -0.435980    0.221844
N      3.388731    1.673033   -1.084279
C     -0.650165   -2.970299   -2.276641
O     -1.423797   -4.139198   -2.229206
O     -3.310810   -2.532603   -1.045345
O     -3.813725    0.171846   -0.116305
H     -2.199810    3.229321    3.196723
H     -1.239543    4.569157    2.460518
H     -0.391150    3.175877    3.242372
H     -1.735879    0.847952    2.225062
H     -1.518323    1.162521   -0.804955
H     -2.601592   -1.088231    0.998308
H     -2.500383   -0.932296   -2.091789
H     -0.814092   -2.673060   -0.149859
H     -0.027490   -0.848016    1.003287
H      2.125802   -0.159780    1.503043
H      2.401288   -0.700379   -0.207453
H      2.993476    2.096244    0.931739
H      4.763158   -0.924977   -0.554076
H      4.125972    2.413500   -1.137972
H      3.696505    0.879568   -1.692227
H     -0.871828   -2.430152   -3.221932
H      0.431876   -3.235697   -2.293646
H     -1.020731   -4.719202   -1.531472
H     -4.142150   -2.215863   -1.485839
H     -4.525353   -0.420415    0.241929
