23

C     -3.558195   -0.263505   -0.165963
C     -2.109003   -0.178195    0.303548
C     -1.149681   -0.039720   -0.882893
C      0.275120    0.043193   -0.403794
C      1.028708   -1.127181   -0.217721
C      2.344877   -1.052864    0.259097
C      2.906891    0.192060    0.559377
C      2.159842    1.362343    0.391397
C      0.843734    1.287236   -0.085466
O      2.732716    2.593428    0.702681
O      3.100650   -2.209098    0.439609
H     -3.699636   -1.148522   -0.822331
H     -3.837859    0.655732   -0.723522
H     -4.228557   -0.363030    0.713613
H     -1.862526   -1.097101    0.879416
H     -2.000162    0.699461    0.977814
H     -1.267048   -0.911241   -1.564196
H     -1.403710    0.872626   -1.466494
H      0.593599   -2.093704   -0.441203
H      3.923451    0.249749    0.927990
H      0.265035    2.194948   -0.206282
H      2.218588    3.459765    0.593047
H      2.723168   -3.126381    0.232275
