39

C     -4.860243    0.173786    0.902829
C     -3.369538    0.112298    0.670205
C     -2.542654    1.188602    1.071353
C     -1.145087    1.121291    0.860407
C     -0.584101   -0.026285    0.253497
C     -1.403425   -1.098157   -0.138041
C     -2.797145   -1.011162    0.036976
O     -3.615956   -2.051460   -0.412760
C     -4.108949   -2.080015   -1.746250
C     -0.791579   -2.305945   -0.804115
O      0.729005   -0.099405    0.045633
C      1.585379    0.859750    0.383782
C      1.102618    2.031636    0.982587
C     -0.264141    2.164260    1.223827
O     -0.683827    3.224740    1.761179
C      3.028752    0.658872    0.098551
C      4.031449    1.292564    0.859582
C      5.382678    1.074849    0.573060
C      5.753957    0.219122   -0.467268
C      4.765976   -0.425411   -1.221274
C      3.413950   -0.211365   -0.937782
O      7.104282    0.013544   -0.740924
O     -3.092974    2.327877    1.671004
H     -5.378500   -0.767106    0.628079
H     -5.066438    0.352030    1.979129
H     -5.298650    0.995600    0.298596
H     -4.725842   -1.177788   -1.942997
H     -4.737438   -2.983532   -1.883243
H     -3.264759   -2.115390   -2.466303
H     -0.687294   -2.114456   -1.892398
H     -1.414437   -3.212173   -0.652522
H      0.209984   -2.528574   -0.379110
H      1.766624    2.847704    1.236822
H      3.780692    1.936010    1.691753
H      6.143129    1.566985    1.166130
H      5.044141   -1.092748   -2.027085
H      2.668309   -0.718874   -1.537616
H      7.405466   -0.601675   -1.487710
H     -4.083413    2.460002    1.827874
