26

C      2.497904   -1.277214    1.246134
C      3.281179   -0.125258    1.479827
C      2.901419    1.116633    0.938920
C      1.738674    1.164948    0.171070
C      0.978836    0.045884   -0.057780
C      1.328342   -1.198563    0.468444
C     -0.092322    0.443329   -0.835378
C      0.070601    1.811867   -1.029278
N      1.195821    2.245214   -0.416762
C     -1.255497   -0.388524   -1.296818
C     -2.462049   -0.254189   -0.344907
C     -2.156471   -0.829927    1.010277
O     -2.068942   -2.076340    1.171097
O     -1.929850    0.016893    2.088058
N     -3.645825   -0.911257   -0.903630
H      2.798695   -2.226807    1.669152
H      4.178187   -0.197738    2.080890
H      3.492416    2.005767    1.116637
H      0.724318   -2.077916    0.288886
H     -0.604847    2.455764   -1.577392
H      1.557969    3.224412   -0.394993
H     -0.950074   -1.453304   -1.387517
H     -1.548813   -0.043399   -2.311875
H     -2.696976    0.826841   -0.218370
H     -3.404317   -1.891502   -1.179887
H     -3.928378   -0.405614   -1.774804
