31

C      6.505414    0.928549   -0.823620
N      5.174124    1.141402   -0.269946
C      4.054821    0.340672   -0.659871
O      4.195787   -0.560459   -1.531699
O      2.797983    0.610448   -0.103043
C      1.681968   -0.237656   -0.166447
C      1.803741   -1.637118   -0.229282
C      0.661887   -2.438940   -0.286043
C     -0.608947   -1.858917   -0.263689
C     -0.747159   -0.459648   -0.165654
C      0.405537    0.336518   -0.123779
N     -2.026170    0.197854   -0.139735
C     -3.181307   -0.361178    0.069863
N     -4.383880    0.426613    0.054832
C     -4.336183    1.851407   -0.279797
C     -5.678710   -0.210837    0.294915
H      6.483251    1.073922   -1.924203
H      6.849623   -0.101265   -0.591347
H      7.218852    1.654494   -0.379743
H      5.032418    1.897897    0.436466
H      2.773961   -2.113897   -0.210012
H      0.762134   -3.515189   -0.345154
H     -1.466967   -2.510748   -0.335690
H      0.309827    1.413706   -0.059986
H     -3.252896   -1.417820    0.285948
H     -3.720786    2.391971    0.469961
H     -5.355179    2.294847   -0.284532
H     -3.890673    1.986320   -1.288099
H     -6.238719    0.355532    1.068868
H     -6.267607   -0.223011   -0.646227
H     -5.556147   -1.255468    0.652673
