19

C     -1.109279   -1.623940    0.815964
C      0.024205   -0.775337    0.301884
C      1.347847   -1.187918    0.537511
C      2.422505   -0.427560    0.073324
C      2.191435    0.751796   -0.633025
C      0.884563    1.172117   -0.885260
C     -0.211960    0.412459   -0.438547
C     -1.606367    0.918112   -0.719841
C     -2.087706    1.722271    0.407983
N     -2.467537    2.356442    1.298322
H     -1.629634   -2.108091   -0.036651
H     -1.830026   -0.999179    1.383411
H     -0.745797   -2.420771    1.499318
H      1.551363   -2.099593    1.085674
H      3.437137   -0.752531    0.264466
H      3.026929    1.342277   -0.986401
H      0.726935    2.093465   -1.432607
H     -1.616130    1.547572   -1.635295
H     -2.308483    0.078409   -0.900230
