18

C     -3.270172    0.328591   -0.082600
O     -2.280571   -0.667135    0.155434
C     -0.899978   -0.420223    0.185108
C     -0.037261   -1.494358    0.430721
C      1.346577   -1.300445    0.470366
C      1.889870   -0.023942    0.264047
C      1.027023    1.057125    0.017147
C     -0.357163    0.862113   -0.022315
C      3.351851    0.162006    0.309428
O      3.869486    1.296112    0.128024
H     -3.122276    0.781825   -1.085565
H     -4.273775   -0.142674   -0.050248
H     -3.219829    1.112327    0.702548
H     -0.442108   -2.485520    0.591847
H      1.993212   -2.148110    0.662329
H      1.420990    2.052688   -0.145388
H     -0.995179    1.713863   -0.214563
H      3.999303   -0.684243    0.501178
