14

C     -1.013200   -0.538519   -0.149205
C      0.385755   -1.018415   -0.440090
C      1.289606    0.037936    0.177157
N      0.495140    1.246821    0.418800
C     -0.866526    0.964405   -0.034910
H     -1.722861   -0.822755   -0.956286
H     -1.360656   -0.956440    0.821531
H      0.547378   -1.058190   -1.540227
H      0.569460   -2.023714   -0.002265
H      2.128334    0.277191   -0.511049
H      1.718894   -0.344515    1.131436
H      0.465106    1.420903    1.451550
H     -1.621830    1.384281    0.666658
H     -1.014601    1.431012   -1.033102
