27

C     -4.197723   -0.979933    0.538951
C     -2.740648   -0.953621    0.086093
C     -2.347020    0.438712   -0.428573
C     -0.928172    0.472254   -1.018184
C      0.162444    0.348009    0.056340
C      1.557999    0.518161   -0.555965
C      2.648562    0.381407    0.513645
C      4.017373    0.590307   -0.073506
C      4.579560   -0.309933   -0.885471
H     -4.360449   -0.246398    1.357243
H     -4.452163   -1.993436    0.914610
H     -4.871054   -0.737534   -0.310712
H     -2.602308   -1.706945   -0.719724
H     -2.101489   -1.236611    0.948789
H     -3.057569    0.738565   -1.230027
H     -2.431962    1.184287    0.392373
H     -0.813511   -0.339036   -1.770312
H     -0.800832    1.442041   -1.547648
H      0.101955   -0.651567    0.537141
H      0.005876    1.127279    0.834422
H      1.633678    1.522286   -1.029231
H      1.708387   -0.254629   -1.341650
H      2.597726   -0.622505    0.989589
H      2.483686    1.145825    1.303782
H      4.575904    1.482190    0.195043
H      4.056856   -1.222255   -1.156344
H      5.574894   -0.136920   -1.281494
