43

C     -6.556986    1.447418    0.094047
C     -5.343887    0.667042   -0.404296
C     -4.114389    0.936176    0.476138
C     -2.841284    0.263957   -0.062708
C     -2.822067   -1.252208    0.191291
C     -1.588900   -1.943592   -0.415522
C     -0.259458   -1.541687    0.258461
C      0.547765   -0.550486   -0.599320
C      1.746174    0.050402    0.152727
C      2.882821   -0.964688    0.361262
C      4.055598   -0.392068    1.178530
C      4.787355    0.796006    0.527707
C      5.416637    0.442694   -0.826998
C      6.286335    1.560110   -1.319482
O      5.799814    2.642014   -1.608102
H     -7.431715    1.228960   -0.554170
H     -6.354851    2.539241    0.060390
H     -6.804170    1.151732    1.135977
H     -5.595694   -0.413924   -0.393269
H     -5.130373    0.969402   -1.452611
H     -3.934456    2.033388    0.509244
H     -4.310012    0.596469    1.517070
H     -2.734186    0.472424   -1.149799
H     -1.976147    0.724251    0.460195
H     -3.721026   -1.715931   -0.265476
H     -2.860852   -1.451620    1.284691
H     -1.556317   -1.764012   -1.513007
H     -1.727496   -3.039222   -0.282980
H      0.347348   -2.461410    0.399648
H     -0.445731   -1.115637    1.268661
H     -0.109049    0.287061   -0.914765
H      0.900019   -1.056918   -1.524765
H      1.411624    0.457414    1.131982
H      2.125088    0.898484   -0.455473
H      3.243364   -1.341401   -0.619039
H      2.493422   -1.839697    0.922213
H      4.789853   -1.207264    1.359588
H      3.677272   -0.072106    2.173934
H      5.594179    1.114931    1.224184
H      4.097948    1.659363    0.415869
H      6.036272   -0.474258   -0.724155
H      4.625834    0.253588   -1.583219
H      7.354323    1.405600   -1.433830
