34

C     -1.620160   -2.220585   -0.190406
C     -1.620412   -0.784892   -0.728364
C     -3.017088   -0.134103   -0.659495
C     -3.392721    0.295641    0.766807
C     -2.311426    1.194612    1.376820
C     -0.953045    0.492198    1.363299
N     -0.642738    0.034956    0.002818
C      0.511186    0.548451   -0.680952
N      0.332439    1.376725   -1.744819
C      1.385710    1.910961   -2.413982
N      2.654911    1.624644   -2.028796
C      2.897673    0.796253   -0.980461
C      4.215872    0.505216   -0.610899
C      4.468835   -0.365705    0.452187
C      3.407576   -0.954075    1.145391
C      2.086692   -0.668831    0.786041
C      1.819387    0.220183   -0.271804
H     -2.318125   -2.850093   -0.782190
H     -0.600380   -2.651776   -0.279487
H     -1.924767   -2.255820    0.875489
H     -1.333575   -0.845562   -1.802816
H     -3.021981    0.765698   -1.313427
H     -3.787227   -0.832458   -1.053186
H     -3.544263   -0.599175    1.407978
H     -4.353966    0.852441    0.737146
H     -2.243457    2.141360    0.797172
H     -2.586789    1.447824    2.423163
H     -0.975764   -0.377253    2.054357
H     -0.174808    1.196664    1.731208
H      1.212735    2.569346   -3.253988
H      5.044788    0.948068   -1.149240
H      5.489112   -0.591100    0.734518
H      3.609201   -1.636477    1.961014
H      1.286576   -1.153338    1.328907
