18

C      1.175331   -0.621265   -1.005681
C      2.263141   -0.130708   -0.093195
O      2.700300   -0.869708    0.827850
O      2.781126    1.148654   -0.251494
C     -0.261343   -0.357547   -0.471257
C     -0.489120    1.164218   -0.272822
C     -1.907836    1.486232    0.098794
O     -2.242856    1.574659    1.309350
O     -2.865669    1.655213   -0.893152
C     -0.475939   -1.106148    0.834154
O     -0.960492   -2.269127    0.830941
O     -0.079608   -0.545233    2.043563
O     -1.194054   -0.803245   -1.432778
H      1.295060   -0.130050   -1.995942
H      1.319557   -1.711896   -1.171273
H      0.188201    1.568387    0.510538
H     -0.249421    1.699656   -1.217404
H     -0.996379   -1.752091   -1.651090
