40

C     -0.390562    3.770918    0.358378
C     -0.225654    2.279830    0.258648
C     -1.346889    1.459288    0.182117
C     -1.239744    0.054449    0.058485
C      0.083809   -0.503686   -0.006675
C      1.240706    0.334279    0.035028
C      1.046347    1.726090    0.164891
C      2.678666   -0.262162   -0.056082
C      2.938865   -1.215555    1.134255
C      3.792318    0.818221   -0.008385
C      2.860349   -1.021337   -1.392190
O      0.295665   -1.880929   -0.111292
C     -2.529571   -0.818651   -0.043277
C     -2.611385   -1.439977   -1.459830
C     -3.840614   -0.000751    0.132991
C     -2.542221   -1.923094    1.059281
H     -1.314231    4.029154    0.919065
H     -0.453443    4.204134   -0.661668
H      0.468480    4.228751    0.893804
H     -2.302810    1.955945    0.223267
H      1.875892    2.414695    0.196932
H      2.323302   -2.134041    1.090607
H      3.999012   -1.550245    1.147603
H      2.726785   -0.697771    2.094615
H      4.800752    0.354972   -0.080409
H      3.761789    1.380637    0.950072
H      3.697701    1.525872   -0.860556
H      3.916819   -1.341516   -1.524295
H      2.587723   -0.365255   -2.246942
H      2.248298   -1.941339   -1.449990
H     -0.406767   -2.598721   -0.103583
H     -1.732715   -2.058481   -1.717900
H     -2.678817   -0.638408   -2.227243
H     -3.512283   -2.084843   -1.552839
H     -3.960743    0.757074   -0.671487
H     -3.863681    0.501924    1.124487
H     -4.729998   -0.666510    0.075972
H     -3.477206   -1.922491    1.661037
H     -2.470494   -2.943524    0.626303
H     -1.713449   -1.786948    1.786805
