49

C      2.207270    0.435654   -2.399053
C      2.248984    0.288022   -0.901687
C      1.113829    0.618020   -0.154171
C      1.089309    0.447021    1.240407
C      2.232090   -0.054716    1.899022
C      3.414687   -0.316825    1.158927
C      3.414274   -0.149730   -0.241922
O      4.571344   -0.450843   -0.972823
C      5.312228    0.515031   -1.662036
O      5.058735    1.742870   -1.523354
C      6.461025    0.089411   -2.510918
C      4.665248   -0.809808    1.851765
C      2.201319   -0.256224    3.397536
O     -0.048796    0.768270    2.004431
C     -1.335622    1.117438    1.491989
C     -2.052236   -0.119767    0.920206
C     -3.444795    0.247206    0.382169
N     -4.080499   -0.940908   -0.210672
C     -5.529956   -0.801044   -0.460471
C     -5.890683    0.467217   -1.253099
C     -6.332409   -0.901851    0.842617
O     -2.144616   -1.131200    1.893490
H      1.169149    0.321817   -2.779283
H      2.826073   -0.344323   -2.890741
H      2.583034    1.439842   -2.686104
H      0.247095    0.998757   -0.675461
H      6.588519    0.791843   -3.362055
H      7.387836    0.079258   -1.900631
H      6.275856   -0.929249   -2.912051
H      4.552826   -1.886870    2.095763
H      4.845333   -0.237126    2.784908
H      5.572176   -0.683136    1.226167
H      2.713385   -1.199819    3.675939
H      1.166210   -0.335794    3.788895
H      2.705835    0.597373    3.897009
H     -1.248224    1.923281    0.732800
H     -1.937212    1.530203    2.330165
H     -1.453379   -0.516701    0.073935
H     -3.334264    1.042689   -0.388772
H     -4.054895    0.651783    1.216949
H     -3.607763   -1.139647   -1.124244
H     -5.842434   -1.668311   -1.085588
H     -5.743985    1.382076   -0.641300
H     -5.265775    0.536088   -2.168395
H     -6.957465    0.425766   -1.561620
H     -6.009038   -1.796587    1.415999
H     -7.413677   -1.006918    0.611559
H     -6.201581    0.000236    1.475539
H     -2.694365   -0.779777    2.641970
