35

C      0.334086   -2.270368   -0.896290
C     -0.965540   -2.743812   -1.479697
C     -1.995165   -2.009976   -1.054177
C     -1.520886   -1.042601   -0.023523
C     -0.058509   -0.879428   -0.409619
C      0.697660   -0.235832    0.762283
N      0.011625    1.018615    1.140343
C     -1.353806    1.313402    0.746586
C     -2.132909    0.325013    0.095403
C     -3.458327    0.603102   -0.269899
C     -3.994488    1.871985   -0.032463
C     -3.221857    2.856908    0.590836
C     -1.908284    2.580819    0.984667
F     -1.176885    3.549668    1.590398
F     -5.272083    2.144615   -0.395391
C      2.135499    0.038300    0.380358
C      2.469073    1.097927   -0.481547
N      3.763541    1.307604   -0.841377
C      4.767987    0.508353   -0.394828
C      4.483859   -0.564702    0.451019
C      3.163089   -0.802427    0.834953
H      0.637009   -2.927236   -0.052313
H      1.130273   -2.221816   -1.669502
H     -1.067456   -3.597905   -2.140840
H     -3.030319   -2.227482   -1.294087
H     -1.611002   -1.544956    0.967562
H      0.010609   -0.193072   -1.290529
H      0.666940   -0.921672    1.638360
H      0.509451    1.678820    1.779888
H     -4.078430   -0.155824   -0.727508
H     -3.644605    3.836365    0.774614
H      1.700589    1.754560   -0.868546
H      5.787137    0.703248   -0.700762
H      5.279578   -1.208454    0.802900
H      2.942548   -1.641738    1.482728
