42

C     -0.562346    0.768238   -2.507956
C     -0.428287    0.014714   -1.156198
C     -1.199870   -1.300296   -1.309617
C     -2.612029   -1.315283   -1.257963
C     -3.321639   -2.506000   -1.435593
C     -2.640176   -3.696922   -1.687391
C     -1.247543   -3.698210   -1.772444
C     -0.530612   -2.511039   -1.595780
C     -1.005680    0.767341    0.047233
C     -1.772854    1.944975   -0.070397
C     -2.268005    2.561765    1.080262
C     -2.010057    2.009075    2.333961
C     -1.259944    0.837068    2.419663
N     -0.783812    0.250474    1.290159
O      0.938821   -0.299582   -0.885820
C      1.795992    0.831761   -0.859767
C      2.980020    0.545152    0.063532
N      2.514257    0.247923    1.436355
C      2.310176    1.487303    2.207303
C      3.488317   -0.606713    2.133518
H     -0.024231    0.211459   -3.305027
H     -0.135746    1.791564   -2.453116
H     -1.626827    0.859463   -2.814006
H     -3.168123   -0.403115   -1.084284
H     -4.402811   -2.503308   -1.384440
H     -3.192068   -4.617469   -1.826998
H     -0.721355   -4.620471   -1.982700
H      0.546717   -2.547024   -1.689742
H     -1.996074    2.389589   -1.029408
H     -2.854584    3.467795    0.999269
H     -2.390940    2.481957    3.229835
H     -1.053295    0.393260    3.384207
H      2.189925    1.009998   -1.883776
H      1.293143    1.764259   -0.524110
H      3.523886   -0.326155   -0.368124
H      3.686193    1.406492    0.049892
H      1.913333    1.246822    3.217150
H      1.556873    2.136119    1.715165
H      3.260017    2.056365    2.319564
H      4.490290   -0.123546    2.175024
H      3.143988   -0.820743    3.168553
H      3.576960   -1.585053    1.614015
