17

C     -2.206866    0.985560    0.098499
C     -2.453881   -0.374783   -0.115663
C     -1.388663   -1.274397   -0.228109
C     -0.070560   -0.815849   -0.126593
C      0.179352    0.558112    0.089718
C     -0.893160    1.454847    0.201550
C      1.506579    0.986896    0.186887
C      2.537057    0.054677    0.068621
C      2.214437   -1.290020   -0.144935
O      3.130759   -2.146081   -0.254253
O      0.942729   -1.671990   -0.233620
H     -3.035075    1.677025    0.184711
H     -3.472455   -0.732195   -0.194581
H     -1.587821   -2.325681   -0.393803
H     -0.716286    2.510770    0.367422
H      1.743907    2.030943    0.352385
H      3.569946    0.372166    0.141765
