44

C      6.708909    0.122230   -1.064295
C      5.873693   -0.982436   -0.425635
C      4.430147   -0.568437   -0.324257
C      3.970013    0.124823    0.804796
C      2.636942    0.537174    0.886842
C      1.739067    0.263460   -0.161315
C      2.212540   -0.407321   -1.302421
C      3.545576   -0.819389   -1.383225
C      0.321529    0.702519   -0.103375
O     -0.236568    1.046384   -1.180786
C     -0.441597    0.797984    1.211402
C     -0.352647   -0.511805    2.015735
C     -1.919972    1.262669    1.059199
N     -2.862330    0.139883    0.817988
C     -2.805060   -0.347024   -0.584126
C     -4.034293   -1.187463   -0.945876
C     -5.319633   -0.347195   -0.856938
C     -5.200631    0.806559    0.153199
C     -4.241433    0.442824    1.294848
H      7.768516   -0.203098   -1.129427
H      6.340092    0.340598   -2.089350
H      6.657806    1.047447   -0.451261
H      6.278008   -1.210163    0.584761
H      5.964042   -1.908679   -1.034023
H      4.645979    0.351827    1.620048
H      2.319377    1.083618    1.764328
H      1.547244   -0.621500   -2.129939
H      3.888541   -1.333660   -2.272578
H      0.065969    1.586220    1.809194
H     -0.711191   -1.372383    1.412677
H      0.690791   -0.717401    2.329327
H     -0.968518   -0.437570    2.937466
H     -2.025832    2.052413    0.282577
H     -2.167636    1.762536    2.022178
H     -2.744808    0.501698   -1.301861
H     -1.904316   -0.982557   -0.715343
H     -3.923201   -1.593728   -1.974553
H     -4.100338   -2.048710   -0.245044
H     -6.162782   -1.011115   -0.566056
H     -5.557742    0.076498   -1.856956
H     -4.819864    1.717010   -0.359634
H     -6.204449    1.044910    0.566688
H     -4.264614    1.257758    2.050424
H     -4.635325   -0.457405    1.814402
