49

C     -2.044205   -0.225739    2.292577
C     -1.002624   -0.872514    1.371077
C     -1.594049   -0.868442   -0.057749
C     -2.868685   -0.005630    0.022818
C     -3.331053   -0.112956    1.482652
O     -4.167098   -1.225986    1.704981
C     -3.940885   -0.420519   -1.018067
C     -5.186939    0.479848   -1.001439
C     -4.875014    1.874308   -1.462612
O     -4.715559    2.107109   -2.690087
O     -4.733420    2.912472   -0.545948
C     -0.605488   -0.329368   -1.124463
C      0.476050   -1.346400   -1.533317
C      1.563443   -1.494291   -0.502255
O      1.645143   -2.529231    0.142968
C      2.545708   -0.380855   -0.248054
C      3.976983   -0.830559   -0.576495
C      4.990259    0.322362   -0.502361
C      5.232612    0.803214    0.934515
C      6.319978    1.830466    0.964429
O      7.515738    1.479645    1.154671
O      6.014657    3.169923    0.734763
O     -0.749507   -2.193105    1.777388
H     -2.200958   -0.805606    3.228681
H     -1.701607    0.795304    2.573058
H     -0.063423   -0.272834    1.418674
H     -1.890515   -1.906923   -0.334597
H     -2.586147    1.057069   -0.159411
H     -3.884032    0.804219    1.780745
H     -3.648318   -2.048902    1.506274
H     -3.500031   -0.395258   -2.038114
H     -4.258909   -1.470650   -0.838808
H     -5.948892    0.045136   -1.684607
H     -5.637954    0.502285    0.013221
H     -4.833739    2.753873    0.448843
H     -0.143632    0.623059   -0.783769
H     -1.175875   -0.084914   -2.046252
H      0.007950   -2.333191   -1.743509
H      0.946243   -1.006034   -2.481308
H      2.473320   -0.088009    0.820251
H      2.286382    0.501960   -0.871185
H      4.284953   -1.645622    0.116220
H      3.997280   -1.241163   -1.610383
H      4.641441    1.171353   -1.130897
H      5.952034   -0.038843   -0.928060
H      4.307993    1.257704    1.349806
H      5.518436   -0.055663    1.580128
H      6.741293    3.876100    0.742336
H     -0.149340   -2.138201    2.567235
