33

C      5.756653    1.047154   -0.058078
C      4.885890    1.373740   -1.269303
C      3.703970    0.412806   -1.394522
O      2.827124    0.567650   -0.282202
C      1.658668   -0.183843   -0.132666
O      1.338191   -1.045629   -0.997172
N      0.832241    0.029897    1.017016
C     -0.410866   -0.704169    1.244947
C     -1.521440   -0.175397    0.330813
C     -2.847335   -0.902608    0.592276
N     -3.877950   -0.475184   -0.379603
C     -4.901993   -1.522159   -0.529084
C     -4.522789    0.779229    0.048286
H      5.171136    1.148060    0.880339
H      6.152216    0.011938   -0.134686
H      6.613632    1.751977   -0.016848
H      5.507076    1.305034   -2.188382
H      4.509097    2.415943   -1.183077
H      3.152593    0.640565   -2.332629
H      4.071847   -0.635638   -1.444482
H      1.161093    0.699252    1.748716
H     -0.718714   -0.571970    2.305359
H     -0.243184   -1.789368    1.069823
H     -1.640645    0.913081    0.513753
H     -1.231954   -0.322074   -0.732027
H     -3.181773   -0.727005    1.640563
H     -2.649897   -1.994563    0.490135
H     -4.444787   -2.447133   -0.941766
H     -5.382663   -1.757404    0.447078
H     -5.683353   -1.199424   -1.250895
H     -5.276272    1.097864   -0.704081
H     -3.778411    1.598320    0.118563
H     -5.027400    0.661059    1.033310
