39

C      0.779644    2.020554    1.031562
C      1.383344    2.425452   -0.158063
C      2.464630    1.708601   -0.689674
C      2.948808    0.561497   -0.019742
C      2.333832    0.171482    1.186973
C      1.259163    0.898870    1.719510
C      0.589660    0.438718    2.985844
C     -0.324730   -0.709421    2.689909
O     -0.007537   -1.870473    3.065546
N     -1.534583   -0.490302    1.951722
C     -2.349539   -1.586588    1.431941
C     -1.632224   -2.330659    0.292866
C     -1.175590   -1.418103   -0.859185
C     -2.354533   -0.758763   -1.594626
C     -1.916660   -0.073504   -2.895085
C     -1.010034    1.090474   -2.635005
O      0.192019    1.052604   -3.008055
O     -1.491407    2.214213   -1.974331
N      4.048104   -0.212242   -0.546899
O      4.499038   -1.185629    0.092797
O      4.612627    0.085271   -1.765907
O      3.049425    2.141323   -1.879132
H     -0.062685    2.582644    1.415483
H      1.004911    3.299330   -0.673186
H      2.682582   -0.707743    1.714517
H      1.360436    0.132715    3.726866
H      0.004295    1.263391    3.446402
H     -1.842532    0.490616    1.763378
H     -2.581490   -2.298772    2.252898
H     -3.318532   -1.186407    1.065344
H     -2.309176   -3.117166   -0.105844
H     -0.740882   -2.850577    0.704425
H     -0.601573   -2.042337   -1.577678
H     -0.484378   -0.638019   -0.473506
H     -2.845819   -0.011356   -0.934885
H     -3.107608   -1.535565   -1.850638
H     -1.414627   -0.810761   -3.559578
H     -2.818074    0.296686   -3.428120
H      2.711695    2.959943   -2.372121
