40

C      4.207847    2.292435   -2.610933
C      4.369161    1.962436   -1.132535
N      3.405685    0.939885   -0.735692
C      2.131187    1.125804   -0.358911
N      1.494750    2.307255   -0.185951
C      0.197930    2.302043    0.240504
C     -0.485275    1.081634    0.501025
C      0.210837   -0.151601    0.327248
C      1.535241   -0.072576   -0.117891
C      2.522119   -1.012894   -0.364995
N      3.650246   -0.365580   -0.751586
N     -0.385066   -1.414504    0.658836
N     -0.103773   -2.558591   -0.109571
C     -0.607472   -3.738561    0.112029
C     -1.568493   -3.993416    1.243138
C     -0.202686   -4.858111   -0.798093
C     -1.911725    1.141718    0.895973
O     -2.685516    0.176671    0.648157
O     -2.406408    2.296778    1.515121
C     -3.777851    2.478184    1.861991
C     -4.607092    2.800776    0.624419
H      4.950492    3.063680   -2.904893
H      3.187037    2.684535   -2.805663
H      4.372808    1.381745   -3.225034
H      5.401339    1.594113   -0.947472
H      4.217905    2.881832   -0.526344
H     -0.310807    3.249981    0.359495
H      2.443998   -2.086567   -0.267583
H     -1.042908   -1.460804    1.467650
H     -2.474647   -3.364651    1.115578
H     -1.889564   -5.055368    1.273607
H     -1.081259   -3.754398    2.211663
H      0.898203   -4.994709   -0.750779
H     -0.491469   -4.611078   -1.841298
H     -0.688292   -5.815485   -0.516008
H     -4.173807    1.570474    2.367265
H     -3.852931    3.328136    2.572468
H     -4.201361    3.704158    0.121798
H     -5.659368    2.995360    0.920509
H     -4.589015    1.949261   -0.087245
