21

C     -1.980171   -1.005230   -0.062970
C     -1.433066    0.423391    0.058417
C      0.115677    0.533487   -0.017813
C      0.821872   -0.190693    1.172495
C      1.612813   -1.270838    0.511985
O      2.303234   -2.117102    1.138058
N      1.527055   -1.250292   -0.897710
C      0.660550   -0.183532   -1.224780
O      0.374121    0.114505   -2.415170
C      0.529978    2.015848   -0.067197
H     -3.085494   -0.983435    0.040188
H     -1.573152   -1.664249    0.730262
H     -1.736946   -1.436488   -1.056437
H     -1.887308    1.029427   -0.756362
H     -1.782554    0.854734    1.022047
H      0.108216   -0.626898    1.902387
H      1.517293    0.479370    1.723682
H      2.004231   -1.896952   -1.564231
H      1.634911    2.113358   -0.144607
H      0.074449    2.521784   -0.945734
H      0.194291    2.539807    0.853490
