27

C      4.017067    0.789445    0.527499
C      2.994052    1.099889   -0.559076
N      1.799670    0.276352   -0.388289
C      0.751934    0.489317    0.552086
O      0.595259    1.570050    1.180554
C     -0.104989   -0.730593    0.735754
N      0.535242   -1.709751   -0.141121
C      1.654796   -1.085720   -0.754546
O      2.446449   -1.689815   -1.525440
C     -1.531553   -0.475500    0.310522
C     -2.567567   -0.527808    1.258946
C     -3.889483   -0.280553    0.875495
C     -4.188280    0.024781   -0.454767
C     -3.165424    0.085509   -1.404439
C     -1.842192   -0.160926   -1.026251
H      4.917546    1.422900    0.384075
H      3.586831    0.999756    1.529570
H      4.318092   -0.278348    0.475854
H      3.442019    0.905301   -1.557135
H      2.715961    2.174574   -0.510680
H     -0.039116   -1.080021    1.789149
H      0.259965   -2.711514   -0.246929
H     -2.353682   -0.759254    2.294997
H     -4.682587   -0.324347    1.610737
H     -5.212035    0.216395   -0.749164
H     -3.397585    0.325373   -2.434025
H     -1.060389   -0.104670   -1.773373
