18

C      0.002805   -0.108185   -1.370723
C      1.373455    0.000664   -1.118651
C      1.851676    0.091222    0.199671
C      0.928158    0.069698    1.260374
C     -0.442507   -0.039092    1.007208
C     -0.916880   -0.127436   -0.312528
N     -2.321340   -0.241210   -0.594072
N     -3.281564   -0.231907    0.431464
N      3.263593    0.203193    0.456304
O      3.694114    0.283889    1.625585
O      4.164042    0.223455   -0.584228
H     -0.343074   -0.176475   -2.394583
H      2.058476    0.013816   -1.956441
H      1.265496    0.136146    2.286811
H     -1.127504   -0.056683    1.844704
H     -2.634331   -0.364546   -1.584866
H     -3.320882    0.742702    0.807497
H     -4.213733   -0.419251   -0.003526
