50

C     -6.075519   -1.466376    1.094931
O     -5.990030   -0.046747    1.024645
C     -4.928546    0.657370    0.434695
C     -4.969771    2.058343    0.444190
C     -3.936028    2.795683   -0.146036
C     -2.853547    2.142439   -0.736979
C     -2.777157    0.740485   -0.726040
C     -3.833896    0.002719   -0.163926
C     -1.612206    0.034243   -1.382593
C     -0.838641   -0.920280   -0.424085
C      0.046149   -1.865586   -1.228355
O      1.310393   -1.269623   -1.407660
C      1.454094   -0.248372   -0.439347
C      0.213811   -0.274824    0.469911
C     -0.137709    1.100951    1.065343
O     -1.265581    0.989754    1.888786
C      2.810756   -0.391788    0.243477
C      3.949321   -0.520013   -0.575335
C      5.238604   -0.630828   -0.019187
C      5.390433   -0.598393    1.371740
C      4.269842   -0.451038    2.195548
C      2.993062   -0.341276    1.641606
O      6.663154   -0.709496    1.929412
O      6.387483   -0.771495   -0.813701
C      6.383466   -0.821026   -2.236783
O     -6.047824    2.712031    1.038707
H     -5.212856   -1.873231    1.663832
H     -7.011399   -1.747509    1.619715
H     -6.098122   -1.898680    0.072298
H     -3.972567    3.877639   -0.150117
H     -2.072153    2.733376   -1.198139
H     -3.801509   -1.077228   -0.201450
H     -2.040690   -0.553395   -2.223380
H     -0.908939    0.762389   -1.842442
H     -1.551700   -1.517828    0.184820
H      0.181295   -2.817803   -0.668533
H     -0.389754   -2.124641   -2.216646
H      1.469761    0.720482   -0.987008
H      0.378498   -0.986661    1.309649
H     -0.310161    1.847713    0.262620
H      0.715761    1.472158    1.671726
H     -1.475723    1.909923    2.195321
H      3.822481   -0.530887   -1.649774
H      4.388131   -0.416881    3.271285
H      2.167396   -0.215322    2.323996
H      6.806720   -0.688373    2.932348
H      5.969147    0.122527   -2.650618
H      5.785101   -1.688490   -2.587115
H      7.425443   -0.939488   -2.598130
H     -6.108273    3.723353    1.060883
