38

C     -3.144099    2.445236   -0.551038
C     -2.272330    1.717500    0.481068
C     -0.767312    1.852226    0.116695
C     -0.011999    0.553411    0.422248
C     -0.638951   -0.622314   -0.420678
C      0.029330   -1.989273   -0.030791
C      1.523557   -1.823857   -0.074995
C      2.563753   -2.738627   -0.208508
N      3.757853   -2.084589   -0.194818
C      3.463868   -0.776924   -0.046891
C      4.324529    0.316312    0.042848
C      3.742056    1.591963    0.230353
C      2.332201    1.741339    0.325556
C      1.492839    0.609855    0.199124
C      2.122053   -0.609113    0.033526
N     -2.135645   -0.597213   -0.416884
C     -2.721864    0.242518    0.643809
C     -2.797871   -1.908971   -0.496255
H     -3.064306    1.953721   -1.544507
H     -2.820563    3.503940   -0.645163
H     -4.207885    2.437415   -0.231096
H     -2.437468    2.217374    1.461876
H     -0.342246    2.692546    0.705182
H     -0.632246    2.093446   -0.961659
H     -0.145366    0.330526    1.504720
H     -0.346660   -0.437748   -1.479898
H     -0.271014   -2.283114    0.997283
H     -0.250471   -2.790584   -0.745387
H      2.457301   -3.810162   -0.313873
H      4.706896   -2.512091   -0.276979
H      5.397948    0.193110   -0.017514
H      4.379370    2.461981    0.319588
H      1.920639    2.724045    0.505145
H     -3.833732    0.194248    0.615001
H     -2.417105   -0.142559    1.642767
H     -3.891015   -1.776913   -0.644927
H     -2.428465   -2.472631   -1.378321
H     -2.635580   -2.496030    0.433392
