23

C     -0.256335   -1.358839   -1.114241
C     -1.636696   -1.427084   -0.906180
C     -2.274524   -0.520908   -0.051558
C     -1.505849    0.463830    0.598360
C     -0.124650    0.532710    0.390650
C      0.512121   -0.379353   -0.468531
N      1.929030   -0.323953   -0.693956
N      2.725359    0.648215   -0.059482
C      4.011243    0.754681   -0.218610
C      4.756982   -0.131417   -1.077572
N      5.356049   -0.842317   -1.766848
C      4.717321    1.788731    0.483131
N      5.286460    2.622499    1.048990
O     -3.663549   -0.636486    0.119869
C     -4.463811    0.201874    0.950622
F     -4.048136    0.105763    2.266590
F     -5.779674   -0.210299    0.868192
F     -4.380472    1.515231    0.524075
H      0.214550   -2.071092   -1.780167
H     -2.215180   -2.189486   -1.412533
H     -1.961921    1.181214    1.265608
H      0.442290    1.299341    0.902618
H      2.359392   -1.022855   -1.341356
