35

C      4.032749    0.705810    0.604079
C      3.243146   -0.529673    0.156760
C      1.782141   -0.640686    0.426474
O      2.743484   -1.279743    1.242525
C      1.075083    0.505807    1.160165
O     -0.231316    0.100783    1.565486
C     -1.285293   -0.051827    0.658119
C     -1.947541    1.054471    0.065903
C     -1.636040    2.378664    0.401334
C     -2.316033    3.425395   -0.218854
C     -3.309060    3.131675   -1.157660
O     -3.928958    4.066626   -1.728676
O     -3.610089    1.869724   -1.448722
C     -2.992139    0.835784   -0.884327
C     -3.382137   -0.472830   -1.223102
C     -2.732325   -1.531031   -0.596036
C     -1.730031   -1.328319    0.312841
C     -1.311838   -2.572491    0.727512
C     -2.112009   -3.465325    0.023782
O     -2.951437   -2.812499   -0.759524
C      3.826117   -1.417911   -0.941783
H      3.694424    1.590593    0.025676
H      5.115823    0.553420    0.413793
H      3.908013    0.905657    1.688951
H      1.199210   -1.361202   -0.184715
H      1.017359    1.383570    0.483288
H      1.633798    0.806819    2.070593
H     -0.885995    2.609914    1.146078
H     -2.077667    4.451955    0.031111
H     -4.172554   -0.654202   -1.940208
H     -0.530722   -2.806616    1.438762
H     -2.064088   -4.543512    0.096465
H      3.209517   -2.327968   -1.105445
H      3.874859   -0.844272   -1.890643
H      4.851549   -1.736562   -0.660003
