34

C      5.373225    1.623961   -0.673019
O      5.011376    0.257370   -0.503628
C      3.719908   -0.183453   -0.180144
C      2.641031    0.712497    0.009761
C      1.391656    0.187425    0.332768
C      1.186483   -1.157545    0.463445
C      2.226366   -2.068063    0.275744
C      3.500840   -1.571156   -0.042912
C     -0.256686   -1.425179    0.737084
C     -0.905996   -2.101490   -0.484364
O     -2.315648   -1.915017   -0.476933
C     -2.865937   -0.648164   -0.288974
C     -2.122585    0.350889    0.362301
C     -0.797626    0.019324    1.005797
O      0.234153    0.900988    0.561499
C     -2.677955    1.630050    0.520123
C     -3.958728    1.907355    0.032680
C     -4.703895    0.902991   -0.600153
C     -4.156831   -0.375161   -0.753497
O     -5.985620    1.164511   -1.078938
H      6.451968    1.685066   -0.923878
H      4.788737    2.073508   -1.503398
H      5.194340    2.185693    0.268097
H      2.762145    1.782785   -0.084760
H      2.053814   -3.132737    0.364735
H      4.320113   -2.263043   -0.191022
H     -0.375975   -2.062779    1.640490
H     -0.503496   -1.670475   -1.428588
H     -0.680537   -3.188849   -0.478396
H     -0.908418    0.146629    2.105739
H     -2.125981    2.405846    1.036316
H     -4.376631    2.897791    0.160453
H     -4.727725   -1.151377   -1.247451
H     -6.409884    2.079807   -0.983452
