34

C     -1.543800    2.479063   -0.486232
C     -0.666412    1.664504    0.232795
C     -0.341050    0.365784   -0.220161
C     -0.996708   -0.113586   -1.383747
C     -1.874142    0.711528   -2.094919
C     -2.139941    2.007055   -1.653848
F     -2.995642    2.798095   -2.346847
F     -0.829394   -1.385633   -1.824707
C      0.597677   -0.526672    0.617568
C     -0.166391   -1.020881    1.868849
N     -1.367250   -1.770599    1.502437
C     -1.439027   -3.069192    1.167979
N     -2.697619   -3.416261    0.837350
C     -3.370271   -2.253766    0.989765
N     -2.572698   -1.244516    1.389810
C      1.872003    0.235123    1.092214
N      2.603772    0.836874   -0.023204
C      3.641688    0.304731   -0.689617
N      4.068738    1.130558   -1.664019
C      3.230844    2.183809   -1.541154
N      2.336792    2.018568   -0.547338
O      1.011132   -1.666240   -0.102204
H     -1.768644    3.476022   -0.129456
H     -0.249835    2.055401    1.149951
H     -2.361939    0.337532   -2.986101
H      0.495299   -1.672918    2.481386
H     -0.457085   -0.158822    2.509138
H     -0.597173   -3.749300    1.156084
H     -4.430477   -2.144508    0.806133
H      2.543111   -0.474882    1.625183
H      1.620328    1.025694    1.830132
H      4.078947   -0.662322   -0.477084
H      3.273297    3.062178   -2.170757
H      1.491868   -1.362422   -0.915381
