26

C     -0.546687    1.626653    1.140099
C      0.280644    2.551531    0.244901
O      1.512149    1.927372   -0.108815
C      1.599469    0.563572   -0.407983
C      0.521188   -0.304561   -0.130914
C     -0.758549    0.243630    0.481759
C     -1.867757    0.278706   -0.544083
O     -1.828309    0.924212   -1.625076
N     -2.974461   -0.530533   -0.173971
C     -2.584650   -1.099157    1.059345
O     -3.305088   -1.897706    1.713101
N     -1.293378   -0.684455    1.482154
C      0.633417   -1.665184   -0.476259
C      1.811061   -2.155267   -1.048230
C      2.883484   -1.293730   -1.290113
C      2.777710    0.061910   -0.971130
F      1.912181   -3.468570   -1.369576
H     -0.000882    1.495506    2.100600
H     -1.524372    2.104064    1.371399
H     -0.284519    2.798027   -0.678094
H      0.494360    3.500206    0.780549
H     -3.857868   -0.693264   -0.705950
H     -0.813763   -0.988590    2.358972
H     -0.190022   -2.346224   -0.302198
H      3.795730   -1.674648   -1.730949
H      3.608912    0.726503   -1.169536
