31

C     -1.622504   -2.557114    0.290546
C     -1.471624   -1.232720   -0.489671
C     -2.629867   -0.306386   -0.073252
C     -2.471369    1.063307   -0.706120
C     -1.135918    1.633897   -0.340718
C     -0.013332    0.784085   -0.186356
N     -0.141999   -0.588435   -0.274463
C      0.985059   -1.371589   -0.279372
C      2.262925   -0.840931   -0.048420
C      2.390798    0.545426    0.142366
O      3.522547    1.054002    0.376464
C      1.257550    1.369644    0.054329
C      1.371712    2.768279    0.179065
C      0.253103    3.585535    0.034307
C     -0.990798    3.024455   -0.239822
F      0.379732    4.931457    0.139812
C      3.437063   -1.756317   -0.018785
O      4.604924   -1.307813    0.136860
O      3.257942   -3.129996   -0.164989
H     -2.683727   -2.887054    0.306941
H     -1.274843   -2.431635    1.338334
H     -1.053610   -3.376002   -0.194775
H     -1.581977   -1.456468   -1.574261
H     -3.600908   -0.741691   -0.396967
H     -2.650884   -0.195107    1.034612
H     -3.292911    1.720922   -0.346106
H     -2.544956    0.982291   -1.812353
H      0.904906   -2.432229   -0.465154
H      2.329822    3.235395    0.372222
H     -1.845343    3.676051   -0.376347
H      4.048487   -3.763261   -0.147032
