31

C     -1.460522    1.162796    1.859674
C     -1.920867    0.459760    0.575701
C     -3.164428   -0.433260    0.832625
C     -3.682246   -1.089993   -0.456092
O     -4.198451    0.306824    1.433814
C     -0.778944   -0.338154    0.005308
O     -0.294302   -1.304604    0.656874
O     -0.263951    0.004529   -1.249916
C      0.853390   -0.653238   -1.842830
C      2.121023   -0.285574   -1.120881
C      2.601666    1.032740   -1.176742
C      3.767603    1.386916   -0.490728
C      4.458413    0.429417    0.257158
C      3.983581   -0.883563    0.321232
C      2.817957   -1.241908   -0.363389
H     -0.553494    1.772741    1.657926
H     -2.252750    1.845456    2.233212
H     -1.224337    0.420255    2.652161
H     -2.195997    1.249245   -0.158910
H     -2.882430   -1.246706    1.536983
H     -3.918051   -0.318550   -1.219932
H     -2.926185   -1.789876   -0.870278
H     -4.604508   -1.668921   -0.237445
H     -4.448147    1.036253    0.807456
H      0.935493   -0.328831   -2.901640
H      0.687192   -1.752969   -1.846742
H      2.071738    1.784333   -1.748909
H      4.134473    2.404112   -0.537373
H      5.360214    0.705176    0.788342
H      4.517754   -1.623473    0.903185
H      2.459113   -2.261647   -0.299843
