33

C      4.015423    0.856969   -0.418852
C      4.594218   -0.451848    0.100664
C      3.857588   -0.856199    1.376612
N      2.399665   -0.805608    1.215241
C      1.772099   -0.066332    0.335667
C      2.531969    0.681622   -0.744912
N      0.331340   -0.068219    0.326095
C     -0.458515    0.646145   -0.678679
C     -1.926022    0.363985   -0.498417
C     -2.513950   -0.748712   -1.120391
C     -3.868725   -1.032675   -0.923196
C     -4.648084   -0.214926   -0.093031
C     -4.058821    0.887230    0.542045
C     -2.704116    1.172065    0.345527
N     -6.033390   -0.506394    0.109150
H      4.562479    1.170289   -1.334169
H      4.140348    1.653911    0.347565
H      4.483009   -1.247859   -0.668383
H      5.676292   -0.323741    0.319172
H      4.161064   -1.887240    1.658895
H      4.150692   -0.175534    2.205232
H      1.840789   -1.332204    1.924388
H      2.434476    0.115813   -1.696507
H      2.089619    1.688663   -0.894755
H     -0.169277   -0.612096    1.066578
H     -0.272936    1.738235   -0.589125
H     -0.142016    0.328974   -1.696106
H     -1.923206   -1.396263   -1.756571
H     -4.309784   -1.891288   -1.413754
H     -4.647810    1.522495    1.191605
H     -2.261743    2.021233    0.851695
H     -6.621738    0.095808    0.727272
H     -6.480936   -1.326297   -0.358115
