30

C      3.368163    1.722018    0.361346
C      3.205883    0.672719   -0.743499
C      4.157836   -0.507886   -0.528983
C      1.777427    0.198196   -0.833060
O      1.193426    0.226767   -1.950461
N      1.106688   -0.337553    0.321058
C     -0.307682   -0.589685    0.380596
C     -1.229411    0.259285   -0.253269
C     -2.617249    0.025586   -0.163354
C     -3.075792   -1.117812    0.547083
C     -2.145422   -1.930941    1.213591
C     -0.779481   -1.664878    1.138160
N     -4.468814   -1.469660    0.612679
O     -5.183348   -1.420181   -0.409228
O     -4.970212   -2.075824    1.741658
C     -3.576582    0.992085   -0.831440
F     -4.661010    1.242079   -0.009059
F     -4.017857    0.453208   -2.025756
F     -2.967491    2.206633   -1.098569
H      4.402998    2.125991    0.351800
H      3.169584    1.283981    1.362605
H      2.665125    2.565690    0.192215
H      3.479976    1.157339   -1.707442
H      3.967695   -1.003309    0.446737
H      4.029197   -1.254303   -1.341954
H      5.210914   -0.154499   -0.546894
H      1.688985   -0.639326    1.134221
H     -0.862272    1.123437   -0.790070
H     -2.478462   -2.793825    1.776464
H     -0.082815   -2.314917    1.652825
