42

C     -3.547306   -1.600083   -1.675761
C     -2.434528   -1.265528   -2.446594
C     -1.269013   -0.798822   -1.832717
C     -1.179500   -0.699416   -0.424686
C     -2.341200   -0.983231    0.329044
C     -3.504014   -1.448882   -0.290318
C      0.062089   -0.090193    0.262084
C      1.379366   -0.389734   -0.482966
C      1.600053   -1.657291   -1.068212
C      2.831414   -1.976708   -1.646565
C      3.883523   -1.061833   -1.604668
C      3.713490    0.163398   -0.959964
C      2.483823    0.487029   -0.380155
F      5.079708   -1.376784   -2.159732
C     -0.261315    1.420747    0.339785
C     -0.953344    1.944843    1.457153
C     -1.320233    3.291294    1.512155
C     -1.050035    4.135113    0.437400
C     -0.437455    3.627764   -0.706772
C     -0.067254    2.280868   -0.773212
F      0.458063    1.823745   -1.937227
N      0.264633   -0.671313    1.614021
C      0.082086   -1.958437    1.978686
C      0.642436   -2.148418    3.218758
N      1.229742   -1.008080    3.625150
C      1.001103   -0.139331    2.619291
H     -4.450523   -1.956335   -2.154020
H     -2.478621   -1.354813   -3.524397
H     -0.440569   -0.514167   -2.466135
H     -2.355957   -0.834878    1.400703
H     -4.378222   -1.678724    0.305059
H      0.822295   -2.409633   -1.070051
H      2.973800   -2.943635   -2.111825
H      4.540687    0.858313   -0.892656
H      2.402317    1.422786    0.156742
H     -1.229227    1.312412    2.289831
H     -1.830739    3.676861    2.385285
H     -1.340197    5.176974    0.480151
H     -0.264697    4.277717   -1.555032
H     -0.381904   -2.722730    1.368935
H      0.659075   -3.075129    3.776261
H      1.406151    0.864265    2.607172
