33

C     -2.986700    1.505837    0.365728
C     -2.077570    0.434985    0.309634
C     -2.554747   -0.848549   -0.005270
C     -3.916991   -1.061744   -0.259022
C     -4.817011    0.015194   -0.199626
C     -4.349443    1.297675    0.112724
O     -5.246696    2.362947    0.169917
O     -6.177066   -0.172433   -0.448221
O     -4.378616   -2.340030   -0.569932
C     -0.637716    0.651340    0.574936
O     -0.220175    1.799835    0.889787
O      0.246553   -0.436105    0.529330
C      1.646570   -0.345303    0.484613
C      2.295911    0.725475   -0.156564
C      3.698720    0.790919   -0.208144
C      4.449900   -0.229178    0.398007
C      3.816214   -1.308632    1.020155
C      2.413682   -1.374753    1.058006
O      1.794551   -2.462933    1.675388
O      4.599368   -2.306751    1.599927
C      4.362486    1.933107   -0.883318
O      3.739036    3.017342   -1.035309
O      5.664401    1.840512   -1.374299
H     -2.642433    2.504433    0.604986
H     -1.873201   -1.688702   -0.055118
H     -4.941031    3.303010    0.392993
H     -6.562754   -1.080438   -0.678007
H     -3.751117   -3.134202   -0.619381
H      1.710320    1.487779   -0.653054
H      5.530689   -0.190336    0.410148
H      0.787173   -2.553559    1.730408
H      4.193001   -3.109674    2.064866
H      6.184691    0.972929   -1.379926
