23

C     -2.464511   -0.155250    1.256034
C     -1.819405   -0.338888   -0.122765
C     -2.393671    0.656692   -1.137659
C     -0.308645   -0.224754   -0.039340
C      0.499301   -1.320201   -0.387008
C      1.892210   -1.228046   -0.314525
C      2.507458   -0.037962    0.107366
C      1.700844    1.059001    0.455587
C      0.308172    0.966922    0.383136
C      3.982164    0.055132    0.182589
O      4.538562    1.120475    0.560431
O      4.775293   -1.033090   -0.163075
H     -2.299780    0.872937    1.642366
H     -3.558700   -0.336127    1.190684
H     -2.035094   -0.883417    1.977057
H     -2.094568   -1.357774   -0.476515
H     -2.227192    1.704754   -0.809931
H     -1.913596    0.509269   -2.128766
H     -3.486356    0.493084   -1.253870
H      0.052819   -2.250419   -0.715757
H      2.486353   -2.090481   -0.589482
H      2.145401    1.990031    0.784552
H     -0.287059    1.828112    0.657638
