30

C      3.624884   -2.398028    0.667166
C      2.904021   -1.109369    0.892583
O      3.129797   -0.445994    1.940831
N      1.913271   -0.671050   -0.047046
C      1.264961    0.604277    0.041955
C      2.023718    1.781068    0.210310
C      1.403186    3.042910    0.195801
C      0.019563    3.150813    0.000622
C     -0.726940    1.984757   -0.165042
C     -0.124035    0.736001   -0.132596
C     -1.178320   -0.262785   -0.277221
C     -1.133780   -1.659986   -0.203988
C     -2.333418   -2.376346   -0.341318
C     -3.551979   -1.697433   -0.525981
C     -3.582937   -0.295148   -0.562459
C     -2.382728    0.404797   -0.430790
C     -2.206981    1.890655   -0.379451
H      2.952817   -3.245134    0.916886
H      4.532431   -2.452330    1.305226
H      3.932209   -2.476407   -0.396668
H      1.671849   -1.295419   -0.848612
H      3.098886    1.725001    0.322777
H      1.999626    3.937319    0.320734
H     -0.459284    4.121238   -0.020227
H     -0.214822   -2.194850   -0.022399
H     -2.322584   -3.457507   -0.292726
H     -4.471917   -2.258909   -0.624543
H     -4.520703    0.232297   -0.679933
H     -2.500068    2.358955   -1.342780
H     -2.760725    2.326605    0.478890
