11

C      1.247750   -0.112398   -0.132141
C     -0.078903    0.098567    0.594275
N     -1.204302    0.035906   -0.337427
H      1.263150   -1.109084   -0.621990
H      2.083853   -0.060133    0.596638
H      1.394437    0.675942   -0.900629
H     -0.065969    1.090698    1.097068
H     -0.196616   -0.685609    1.374341
H     -1.236636   -0.902177   -0.799030
H     -2.094178    0.183872    0.191197
H     -1.112587    0.784416   -1.062301
