43

C     -4.144157    0.005791   -1.262890
C     -3.724061    0.459417    0.141886
C     -3.124173   -0.713019    0.887429
C     -1.806956   -0.938313    0.867427
C     -0.878274    0.004977    0.195366
C      0.509933   -0.262135    0.006282
C      1.387290    0.846358   -0.178499
C      0.851514    2.141719   -0.419159
C     -0.539081    2.325904   -0.408390
C     -1.388900    1.280059   -0.079496
O     -2.765289    1.517826    0.023078
O      1.714807    3.223037   -0.674250
C      1.297704    4.561163   -0.928031
C      2.779574    0.624172   -0.106337
O      3.591611    1.583101   -0.232722
C      3.273506   -0.664721    0.138061
C      4.656399   -0.889095    0.306139
C      5.143880   -2.174307    0.535282
C      4.265581   -3.251304    0.599470
C      2.895775   -3.050957    0.426506
C      2.373124   -1.756039    0.184190
N      1.024794   -1.547335   -0.016300
C      0.191318   -2.686835   -0.458403
C     -4.941015    0.992014    0.906628
H     -4.576767    0.858317   -1.829085
H     -4.902230   -0.805141   -1.204132
H     -3.263871   -0.372746   -1.825995
H     -3.772561   -1.417931    1.394747
H     -1.423880   -1.780800    1.424616
H     -0.975116    3.295928   -0.603511
H      2.193751    5.194972   -1.088223
H      0.734223    4.957646   -0.057142
H      0.669190    4.598695   -1.842725
H      5.365598   -0.071359    0.265349
H      6.206154   -2.334672    0.667860
H      4.646648   -4.246937    0.787443
H      2.251596   -3.915448    0.509949
H     -0.713166   -2.353777   -1.008831
H      0.746532   -3.309888   -1.192629
H     -0.091835   -3.321012    0.407479
H     -5.723363    0.207919    1.001496
H     -5.376620    1.865906    0.376226
H     -4.639187    1.318848    1.925038
