17

C      1.901249    0.864045    0.256304
C      0.735917    1.619361    0.393500
C     -0.522827    1.018295    0.272099
C     -0.613829   -0.362475   -0.035827
C      0.570379   -1.114494   -0.150908
C      1.820943   -0.506743   -0.007708
O      2.976931   -1.273557   -0.136445
C     -1.907884   -1.036663   -0.278711
O     -2.059670   -2.245198    0.046848
O     -2.945944   -0.367898   -0.920922
O     -1.647984    1.813517    0.499268
H      2.865806    1.343585    0.364536
H      0.809935    2.675750    0.619324
H      0.526719   -2.172752   -0.379704
H      3.898398   -0.862936   -0.040465
H     -3.827246   -0.831511   -1.106885
H     -2.580894    1.439673    0.605697
