23

C      0.730529   -0.710038    1.172486
C      2.049192   -0.379699    1.496400
C      2.869316    0.255859    0.554190
C      2.363184    0.563705   -0.715441
C      1.039854    0.231228   -1.039748
C      0.220308   -0.417584   -0.102031
C     -1.210361   -0.742311   -0.439806
C     -2.127511    0.427490   -0.075562
C     -3.549035    0.101162   -0.406934
O     -4.013074    0.381982   -1.544355
O     -4.345542   -0.553066    0.527534
O      3.179197    1.201338   -1.648203
O      4.185185    0.586551    0.872805
H      0.106759   -1.192480    1.914899
H      2.431983   -0.615064    2.481317
H      0.650265    0.479181   -2.019644
H     -1.529117   -1.654908    0.111282
H     -1.298961   -0.964396   -1.526489
H     -2.049570    0.642778    1.012403
H     -1.817717    1.338979   -0.632714
H     -5.305323   -0.795726    0.312817
H      2.841761    1.437623   -2.574053
H      4.578679    0.377394    1.782924
