20

C     -0.833813    2.967216   -0.638017
O     -1.330008    1.671773   -0.316497
C     -0.531678    0.525459   -0.168461
C     -1.159885   -0.689218    0.150965
C     -0.382012   -1.852712    0.304786
C      1.003151   -1.805354    0.142277
C      1.643464   -0.597151   -0.177147
C      0.867826    0.564532   -0.330840
N      3.072743   -0.546947   -0.345106
O      3.766487   -1.576272   -0.209641
O      3.699985    0.637365   -0.658149
N     -2.588415   -0.706474    0.312051
C     -3.260948   -1.748709    0.600834
O     -3.914588   -2.761334    0.881432
H     -1.683845    3.677850   -0.690637
H     -0.325860    2.947546   -1.625336
H     -0.130240    3.312884    0.148560
H     -0.843256   -2.800469    0.550829
H      1.574226   -2.716491    0.266932
H      1.356665    1.496506   -0.576674
