44

C     -0.919119    4.281038   -1.017610
N     -0.557277    3.105464   -0.223688
C     -0.938640    1.872897   -0.928674
C     -0.730151    0.635136   -0.012906
C      0.759645    0.462555    0.277502
C      1.676941    0.175815   -0.750910
C      3.036511    0.019032   -0.467855
C      3.506899    0.148226    0.851708
C      2.597213    0.435906    1.874101
C      1.237560    0.592884    1.593308
O      4.861042   -0.000608    1.186280
C      5.892723   -0.293918    0.249791
C     -1.398898   -0.675857   -0.579213
C     -0.836928   -1.938864    0.165627
C     -1.825166   -3.111608    0.171296
C     -3.122036   -2.754311    0.920769
C     -3.454588   -1.251848    0.875355
C     -2.961232   -0.603693   -0.424363
O     -1.081889   -0.768719   -1.951000
H     -0.430587    4.251544   -2.016808
H     -0.585278    5.198861   -0.489062
H     -2.021983    4.339324   -1.140638
H      0.484242    3.117040   -0.118134
H     -2.001763    1.944610   -1.234876
H     -0.343377    1.769787   -1.863452
H     -1.245256    0.865308    0.947237
H      1.344650    0.070876   -1.774597
H      3.712750   -0.202343   -1.282166
H      2.946596    0.538233    2.893743
H      0.557737    0.814116    2.406521
H      6.861889   -0.356040    0.785705
H      5.958135    0.512255   -0.511156
H      5.695369   -1.269572   -0.242543
H      0.112825   -2.269807   -0.308625
H     -0.606551   -1.694335    1.226558
H     -2.066191   -3.398758   -0.874904
H     -1.351079   -3.993101    0.654808
H     -3.961415   -3.332259    0.476100
H     -3.032619   -3.065736    1.984389
H     -2.982246   -0.738774    1.741491
H     -4.554053   -1.115471    0.966298
H     -3.455259   -1.126825   -1.272889
H     -3.338536    0.437028   -0.449521
H     -1.440610   -1.625488   -2.300287
