20

C     -2.286266   -1.101351   -0.189491
C     -2.837407    0.196473   -0.277965
C     -2.014403    1.330750   -0.151974
C     -0.652215    1.126519    0.064317
C     -0.118185   -0.133641    0.153678
C     -0.907351   -1.277143    0.027479
C      1.238997    0.021109    0.359653
C      1.464224    1.394718    0.369330
N      0.301952    2.064697    0.195146
C      2.275275   -1.054298    0.461610
C      2.656327   -1.509898   -0.878078
N      2.956771   -1.869865   -1.936071
H     -2.928620   -1.966373   -0.290852
H     -3.899311    0.319351   -0.446561
H     -2.426583    2.328945   -0.223678
H     -0.477670   -2.268279    0.092437
H      2.426392    1.875761    0.488238
H      0.177475    3.100826    0.157605
H      1.875558   -1.912237    1.041510
H      3.175041   -0.666067    0.983667
