32

C      4.818573    0.024929    0.604893
C      3.483627    0.174424   -0.070945
C      2.311083   -0.248523    0.563882
N      1.092950   -0.101619   -0.040108
C      1.017388    0.502136   -1.272015
O     -0.097855    0.676009   -1.835766
N      2.147585    0.928714   -1.898501
C      3.370682    0.780818   -1.326912
O      4.396935    1.195408   -1.931631
C     -0.117875   -0.554695    0.676514
C     -0.903566    0.631783    1.240907
C     -2.276380    0.475611    0.638246
C     -2.274948   -0.965891    0.146536
O     -0.949697   -1.301044   -0.186284
C     -3.185834   -1.153607   -1.073015
O     -3.176169   -2.492467   -1.488634
N     -3.319874    0.687621    1.637463
N     -4.188891    1.544468    1.474530
N     -5.057157    2.400226    1.311724
H      4.753512   -0.647502    1.486683
H      5.176789    1.020293    0.941498
H      5.557091   -0.408106   -0.102480
H      2.379866   -0.697790    1.548267
H      2.072654    1.385860   -2.836326
H      0.161826   -1.226489    1.521128
H     -0.936001    0.567902    2.351926
H     -0.459242    1.611117    0.955803
H     -2.386880    1.187438   -0.213824
H     -2.618035   -1.646687    0.960312
H     -4.224988   -0.834509   -0.828494
H     -2.823645   -0.522231   -1.912511
H     -3.743523   -2.993598   -0.846157
