14

C     -1.760596    0.054103    0.084882
C     -0.426467   -0.207341   -0.621860
C      0.724058    0.545327    0.070426
C      2.012962    0.351651   -0.666288
O      2.300061    1.089746   -1.645203
O      2.876374   -0.673274   -0.300563
O     -0.166365   -1.588371   -0.678619
H     -2.001951    1.138198    0.059874
H     -1.715290   -0.281092    1.143230
H     -2.573826   -0.499080   -0.431030
H     -0.518582    0.169018   -1.664472
H      0.841947    0.186164    1.115986
H      0.490945    1.632014    0.109737
H     -0.083269   -1.917062    0.255034
