18

C     -0.489009    1.057392   -0.622851
C     -1.867246    0.946686   -0.415375
C     -2.370898   -0.015090    0.469330
C     -1.489282   -0.861342    1.147664
C     -0.110346   -0.754133    0.941792
C      0.404204    0.198941    0.042895
C      1.864267    0.339813   -0.177726
O      2.337082    1.483604   -0.418069
C      2.784198   -0.817909   -0.152265
O      2.333411   -1.992618   -0.203607
O      4.163741   -0.628622   -0.107800
O     -3.742100   -0.134803    0.683778
H     -0.120886    1.806371   -1.313311
H     -2.542227    1.609295   -0.942043
H     -1.872741   -1.598483    1.841739
H      0.550330   -1.400038    1.505045
H      4.574142    0.296411   -0.065768
H     -4.406639    0.464524    0.208288
