15

C     -1.099383    0.818790    0.301986
C      0.130721    1.481624    0.184785
C      1.287401    0.753087   -0.114364
C      1.220831   -0.632719   -0.296702
C     -0.010788   -1.292615   -0.178828
C     -1.172537   -0.566824    0.120798
O     -2.401535   -1.211727    0.240321
O      2.381501   -1.343379   -0.594033
O      0.213908    2.860666    0.363346
H     -1.997217    1.378139    0.533335
H      2.237930    1.263829   -0.205130
H     -0.064843   -2.364850   -0.319470
H     -2.488231   -2.213568    0.115087
H      2.367106   -2.347210   -0.731879
H     -0.604864    3.416756    0.580748
