12

C     -1.434796    0.118104   -0.548934
C     -0.524515    0.255726    0.666535
C      0.734150   -0.543602    0.482672
O      0.786790   -1.720936    0.928881
C      1.890821    0.003866   -0.243942
O      1.854377    1.167349   -0.724605
O      3.035936   -0.766032   -0.406125
H     -2.362063    0.707127   -0.387240
H     -0.925530    0.500761   -1.459127
H     -1.712213   -0.946552   -0.704097
H     -0.277505    1.327259    0.826939
H     -1.065453   -0.103070    1.569043
