16

C      0.937400    1.656529    0.196759
C      0.663358    0.301824    0.127091
C     -0.701906    0.193667   -0.130829
C     -1.182087    1.488496   -0.220385
N     -0.184106    2.366351   -0.017771
C     -1.540124   -1.016329   -0.215185
O     -2.681406   -0.949231   -0.745563
O     -1.110818   -2.220878    0.330577
C      1.678528   -0.762581    0.228536
O      2.795084   -0.511868    0.756523
O      1.441310   -2.027054   -0.298661
H      1.908780    2.101412    0.371348
H     -2.210382    1.775137   -0.400456
H     -0.265079    3.407099   -0.025581
H     -1.693300   -3.048587    0.287994
H      2.144747   -2.753987   -0.244398
