43

C     -5.146526    2.252257   -0.329626
C     -6.116042    1.885803    0.629947
C     -6.182866    0.563998    1.106681
C     -5.268179   -0.358506    0.600447
C     -4.326459   -0.003039   -0.331914
C     -4.234886    1.300600   -0.821804
C     -3.588283   -1.138916   -0.605920
C     -4.122430   -2.138958    0.201562
N     -5.153808   -1.656453    0.931288
C     -2.389583   -1.263366   -1.495915
C     -1.136880   -1.081349   -0.696048
O     -0.570103   -2.090377   -0.195147
N     -0.618105    0.234809   -0.457425
C      0.583791    0.474192    0.338447
C      1.837874    0.111123   -0.462750
C      3.109250    0.389650    0.347395
C      4.366335    0.021414   -0.455956
C      5.666074    0.340175    0.313683
C      5.795567   -0.527449    1.539062
O      5.801655   -0.006304    2.685336
O      5.903871   -1.907333    1.413282
N      6.834307    0.156533   -0.555310
H     -5.104381    3.272243   -0.688810
H     -6.811350    2.626917    1.002065
H     -6.919830    0.274608    1.844618
H     -3.492587    1.577193   -1.558384
H     -3.766141   -3.159189    0.260660
H     -5.732136   -2.185093    1.621607
H     -2.433101   -0.508285   -2.308904
H     -2.387559   -2.266794   -1.973800
H     -1.147094    1.061019   -0.816222
H      0.625909    1.550857    0.613626
H      0.535905   -0.117544    1.278658
H      1.805873   -0.965796   -0.735900
H      1.855353    0.710785   -1.399336
H      3.146202    1.468854    0.614144
H      3.078495   -0.205461    1.286050
H      4.361287    0.601562   -1.405034
H      4.339545   -1.059155   -0.719845
H      5.633456    1.408154    0.630497
H      6.878661   -0.826032   -0.912729
H      7.709870    0.369145   -0.023291
H      6.779050    0.813508   -1.367439
