25

C     -0.968833    0.018264    0.738526
C     -0.452517    0.439828   -0.645019
O      0.929382    0.772044   -0.571715
N      1.897308   -0.198012   -0.401877
C      3.155363    0.118743   -0.305792
N      3.574299    1.486746   -0.369402
N      4.137522   -0.906494   -0.132957
C     -2.491681   -0.242254    0.797217
C     -3.279976    1.013180    0.519814
O     -3.501052    1.832779    1.449929
O     -3.726579    1.303197   -0.764415
N     -2.897655   -1.336982   -0.094908
H     -0.712226    0.813464    1.472803
H     -0.436202   -0.903386    1.058242
H     -1.003682    1.335373   -0.998591
H     -0.591564   -0.376491   -1.384845
H      1.612752   -1.203281   -0.353891
H      2.890941    2.266214   -0.492794
H      4.586908    1.728271   -0.291022
H      3.862195   -1.912632   -0.082081
H      5.149113   -0.660697   -0.054595
H     -2.723445   -0.553377    1.841596
H     -2.331484   -2.192044    0.110837
H     -3.905190   -1.565463    0.069972
H     -2.773697   -1.076992   -1.099634
