39

C      2.887341    1.909376    0.534766
C      2.330350    0.646846    1.185681
N      2.389442   -0.488344    0.235892
C      3.699973   -1.175140    0.303229
C      4.071437   -1.740065   -1.064882
C      1.280491   -1.438319    0.474605
C      0.025614   -0.933118   -0.171927
O     -0.061424   -0.930224   -1.429992
N     -1.046446   -0.417367    0.628520
C     -2.225601    0.148597    0.039271
C     -2.426819    1.545753    0.079929
C     -3.574662    2.097427   -0.510083
C     -4.514565    1.274735   -1.130463
C     -4.326000   -0.106805   -1.162334
C     -3.195158   -0.684793   -0.565099
C     -3.022031   -2.179014   -0.610352
C     -1.404645    2.449076    0.714705
H      3.959285    1.782867    0.278035
H      2.317334    2.140906   -0.390091
H      2.790746    2.764367    1.236720
H      2.886638    0.422670    2.124233
H      1.282755    0.874433    1.480235
H      3.694722   -1.990032    1.062694
H      4.512281   -0.471999    0.592419
H      5.079378   -2.203469   -1.015672
H      4.089669   -0.924570   -1.818807
H      3.344220   -2.514039   -1.385609
H      1.498668   -2.432630    0.027500
H      1.124704   -1.606960    1.564390
H     -0.908870   -0.311888    1.658604
H     -3.740697    3.167562   -0.497822
H     -5.393392    1.709875   -1.588714
H     -5.068370   -0.727687   -1.648721
H     -4.000420   -2.689667   -0.737332
H     -2.571876   -2.550675    0.334176
H     -2.366008   -2.452428   -1.462438
H     -1.267041    2.172599    1.780981
H     -1.715363    3.514616    0.671515
H     -0.435658    2.347529    0.182238
