32

C      3.559719   -0.236900   -0.349783
C      2.125448    0.037248    0.123839
C      1.389074   -1.270393    0.436304
N      0.043813   -0.988311    0.958742
C     -0.945918   -0.901039   -0.123500
C     -2.291473   -0.434360    0.438856
C     -3.340652   -0.304581   -0.674665
C     -4.726279    0.063131   -0.130851
N     -4.741647    1.432331    0.378493
C      4.302271    1.056524   -0.703923
N      4.491036    1.889643    0.480578
H      3.528448   -0.882598   -1.254596
H      4.122361   -0.780951    0.440420
H      2.148579    0.665169    1.041184
H      1.580486    0.594085   -0.667988
H      1.349399   -1.920632   -0.467765
H      1.969434   -1.820567    1.211074
H     -0.233011   -1.789907    1.573858
H     -0.611644   -0.171660   -0.893363
H     -1.071203   -1.896704   -0.607154
H     -2.644180   -1.167130    1.197537
H     -2.147414    0.549104    0.935971
H     -3.017534    0.464154   -1.410690
H     -3.424406   -1.276310   -1.209102
H     -5.034689   -0.650492    0.666016
H     -5.459133   -0.021329   -0.963487
H     -5.740793    1.712063    0.509076
H     -4.315124    1.433581    1.333162
H      3.724675    1.621345   -1.468457
H      5.292506    0.800825   -1.142902
H      5.176820    1.412621    1.110240
H      4.941030    2.782043    0.173112
