13

C      0.069701   -0.899393   -0.452923
C     -1.183626   -0.028333   -0.315952
C     -0.859484    1.429291   -0.439126
O     -0.723304    1.953927   -1.575643
O     -0.666842    2.198450    0.701502
C      1.006174   -0.703976    0.700043
O      0.812899   -1.320492    1.781931
O      2.067817    0.188274    0.587796
H     -0.235610   -1.967421   -0.492791
H      0.593719   -0.665930   -1.405343
H     -1.676858   -0.221636    0.661587
H     -1.904972   -0.305865   -1.114762
H      2.700385    0.343106    1.363682
