44

C     -5.831233   -1.735848   -2.326728
O     -5.471232   -1.022158   -1.148297
C     -4.164236   -0.926299   -0.644454
C     -3.954419   -0.188707    0.529093
C     -2.653579   -0.074807    1.057844
C     -1.557250   -0.685817    0.422176
C     -1.786018   -1.428313   -0.749944
C     -3.072635   -1.545618   -1.277964
C     -0.196001   -0.548279    1.011541
O     -0.085315   -0.241884    2.230870
C      1.069602   -0.763056    0.215142
C      1.700084   -2.120670    0.573023
O      0.875093   -3.180009    0.167913
O      1.980960    0.292963    0.531952
C      3.128894    0.645885   -0.199952
C      3.465029    0.035629   -1.426009
C      4.615294    0.424622   -2.115574
C      5.439104    1.422812   -1.596518
C      5.116040    2.037541   -0.385515
C      3.958458    1.653927    0.320445
O      3.599309    2.248554    1.540502
C      4.342044    3.277966    2.185525
O     -5.063907    0.416821    1.140935
C     -5.006095    1.193648    2.332955
H     -5.304538   -1.310232   -3.206875
H     -5.580143   -2.811625   -2.213359
H     -6.924660   -1.641633   -2.487577
H     -2.488666    0.498735    1.959845
H     -0.982310   -1.941016   -1.258124
H     -3.208355   -2.126757   -2.179821
H      0.836208   -0.717081   -0.867683
H      2.674406   -2.228467    0.054526
H      1.908195   -2.176819    1.666896
H      0.216496   -3.326275    0.896102
H      2.849205   -0.738848   -1.859167
H      4.868027   -0.048824   -3.055617
H      6.329719    1.721808   -2.134170
H      5.771881    2.809384   -0.006823
H      4.399004    4.174298    1.532430
H      3.829608    3.557852    3.128608
H      5.363227    2.916363    2.429690
H     -4.624261    0.576121    3.173247
H     -6.027284    1.544792    2.586309
H     -4.353752    2.079316    2.180476
