23

C      1.927423    0.766501    0.807373
C      3.321898    0.797375    0.884357
N      4.063592   -0.116386    0.205207
C      3.482559   -1.077221   -0.559984
C      2.091179   -1.145486   -0.664230
C      1.294198   -0.214924    0.025017
C     -0.187354   -0.267549   -0.071456
C     -0.865381   -1.497546   -0.073220
N     -2.222351   -1.538402   -0.160938
C     -2.969109   -0.403275   -0.250576
O     -4.224463   -0.488069   -0.330268
C     -2.340460    0.852612   -0.253715
C     -0.944877    0.910881   -0.163014
N     -3.102217    2.061920   -0.351328
H      1.350887    1.491148    1.368360
H      3.814887    1.547535    1.488155
H      4.101382   -1.787826   -1.091443
H      1.644818   -1.906541   -1.291725
H     -0.315189   -2.426425    0.013872
H     -2.698323   -2.468970   -0.155635
H     -0.452313    1.875320   -0.182756
H     -2.626940    2.991990   -0.353498
H     -4.143845    2.043338   -0.421685
