20

C     -2.353881   -0.987973   -0.308075
C     -0.896101   -0.647606   -0.140041
C     -0.465824    0.692406    0.004260
C      0.904886    0.966073    0.157773
C      1.850272   -0.072377    0.181988
C      1.410024   -1.398188    0.048271
C      0.052792   -1.681631   -0.109972
C      3.289762    0.230189    0.346972
O      4.141248   -0.698166    0.369197
O      3.723336    1.544414    0.479871
C     -1.448596    1.834195   -0.021248
H     -2.912942   -0.705085    0.608192
H     -2.773435   -0.442533   -1.179050
H     -2.503815   -2.074637   -0.483287
H      1.233915    1.993154    0.259699
H      2.115368   -2.219754    0.065125
H     -0.256404   -2.714786   -0.210616
H     -2.228454    1.681605    0.753772
H     -1.928587    1.893242   -1.020368
H     -0.953565    2.807458    0.182661
