18

C      0.518662    1.063335   -0.631380
C      1.097191   -0.166701   -0.272425
C      0.290552   -1.146148    0.333064
C     -1.064300   -0.894609    0.590778
C     -1.628478    0.338230    0.241305
C     -0.835133    1.320166   -0.373951
O     -1.393742    2.547691   -0.727388
O     -2.977978    0.570606    0.508962
O     -1.859112   -1.869381    1.191968
C      2.531085   -0.421225   -0.555258
O      3.120561    0.246858   -1.446044
O      3.261109   -1.376419    0.151364
H      1.120101    1.831402   -1.102315
H      0.694914   -2.116675    0.585864
H     -0.843887    3.273359   -1.172323
H     -3.431179    1.445547    0.274186
H     -1.482863   -2.772269    1.456809
H      2.882498   -1.873767    0.946782
