27

C     -3.082212    1.016578   -1.052000
C     -3.943343    0.685451    0.017918
C     -3.477266   -0.092314    1.093855
C     -2.151017   -0.521266    1.061241
C     -1.316591   -0.202918    0.020361
C     -1.747629    0.571476   -1.057065
C     -0.089464   -0.769121    0.304705
C     -0.241227   -1.399070    1.536340
N     -1.507132   -1.250357    1.989450
C      1.178692   -0.646423   -0.485580
C      1.897620    0.665985   -0.147212
C      3.171360    0.860508   -0.979259
C      4.237911   -0.119628   -0.597459
O      4.459902   -1.128392   -1.317583
O      4.964754    0.064532    0.571911
H     -3.450852    1.618246   -1.872517
H     -4.967527    1.034976    0.011771
H     -4.127645   -0.345767    1.921013
H     -1.081234    0.825172   -1.871160
H      0.535127   -1.926450    2.075255
H     -1.896836   -1.616171    2.886540
H      1.835370   -1.511683   -0.251501
H      0.939964   -0.680401   -1.570441
H      2.149237    0.691522    0.936445
H      1.213442    1.517732   -0.356106
H      3.559577    1.887054   -0.806208
H      2.937020    0.770730   -2.062717
