10

C      0.585944   -0.343446    0.003665
C     -0.585944   -0.060924   -0.003663
C     -1.983496    0.275007   -0.012647
O     -2.344401    1.450700    0.252114
O     -2.939326   -0.690148   -0.311864
C      1.983496   -0.679376    0.012649
O      2.344401   -1.855070   -0.252106
O      2.939326    0.285781    0.311858
H     -2.671295   -1.643137   -0.528073
H      2.671295    1.238769    0.528067
