23

C     -0.470280    1.070484    1.125110
C     -1.757316    1.589830    0.961542
C     -2.700179    0.906553    0.181516
C     -2.348959   -0.299601   -0.438757
C     -1.057243   -0.820272   -0.273501
C     -0.114919   -0.144343    0.518366
C      1.281511   -0.686852    0.666389
C      2.189670   -0.151210   -0.447159
N      3.548682   -0.673820   -0.310537
O     -3.286798   -0.973684   -1.218867
O     -3.985031    1.420575    0.016223
H      0.249595    1.615299    1.723415
H     -2.020150    2.525323    1.438787
H     -0.787649   -1.748706   -0.762156
H      1.695202   -0.397758    1.657436
H      1.259920   -1.798158    0.628911
H      2.217214    0.960629   -0.402414
H      1.779167   -0.449265   -1.437919
H      4.141343   -0.291193   -1.082278
H      3.540368   -1.717712   -0.375994
H      3.956162   -0.379571    0.606763
H     -3.062587   -1.847414   -1.680620
H     -4.267722    2.290868    0.451626
