21

C     -2.432071   -0.333839   -0.278528
C     -0.943397   -0.118117   -0.134343
C     -0.429254    1.185872    0.076287
C      0.936864    1.362584    0.334242
C      1.817233    0.271765    0.355337
C      1.317333   -1.008638    0.084165
C     -0.043928   -1.214941   -0.186684
N     -0.485963   -2.540164   -0.527531
O     -1.266468   -2.716050   -1.485885
O      0.122901   -3.635133    0.041404
N      3.218653    0.463930    0.626322
O      3.672460    1.603612    0.859471
O      4.082222   -0.607571    0.640961
N     -1.271938    2.346729    0.020546
H     -2.995679    0.332716    0.406491
H     -2.728365   -1.362775    0.010324
H     -2.740266   -0.139290   -1.326955
H      1.313816    2.362214    0.511290
H      1.994137   -1.852962    0.057627
H     -2.245423    2.311884   -0.352220
H     -0.892867    3.288174    0.267681
