20

C     -1.388363   -1.384485    1.135264
C     -1.414098   -0.074047    0.414995
C     -0.338932    0.746007    0.136798
N     -0.770581    1.843245   -0.517645
C     -2.108076    1.672404   -0.601918
N     -2.526770    0.520876   -0.042309
C      1.105586    0.465603    0.425257
C      1.755899   -0.269766   -0.747423
N      3.154946   -0.555986   -0.446929
H     -0.636747   -2.055927    0.670746
H     -1.123851   -1.217593    2.200056
H     -2.384041   -1.872592    1.082219
H     -2.772035    2.385233   -1.072713
H     -3.508300    0.169572    0.017185
H      1.633039    1.428117    0.600659
H      1.194040   -0.146523    1.348679
H      1.219544   -1.227658   -0.926504
H      1.687687    0.350229   -1.669962
H      3.681507    0.348017   -0.449355
H      3.539545   -1.124726   -1.235707
