10

C      0.326434   -0.246468   -0.676662
C     -0.983044    0.047178   -0.020421
O     -1.756195   -0.895956    0.297095
O     -1.329291    1.361311    0.278067
C      1.390094   -0.411156    0.359312
O      1.628834   -1.547083    0.847455
O      2.087423    0.697507    0.822371
H      0.245867   -1.171370   -1.288312
H      0.596544    0.590154   -1.355630
H     -2.206667    1.575883    0.736726
