29

C     -1.304895    1.530789   -0.106865
C     -0.945139    0.596802   -1.283068
C     -1.535031   -0.806939   -1.024705
C     -0.953582   -1.380018    0.286292
C     -1.313329   -0.444416    1.461215
C     -0.723260    0.959623    1.204884
C      0.813481    0.857747    1.084822
C      1.193483   -0.080299   -0.094726
C      0.591232    0.494321   -1.407270
C      0.582775   -1.485788    0.164700
N      2.656567   -0.178736   -0.210850
H     -0.897546    2.549110   -0.291698
H     -2.409778    1.626438   -0.022278
H     -1.366891    1.008424   -2.225707
H     -1.294463   -1.482758   -1.874689
H     -2.643312   -0.745808   -0.953671
H     -1.381398   -2.389226    0.471615
H     -2.418337   -0.377935    1.568951
H     -0.912092   -0.857511    2.412761
H     -0.985537    1.632019    2.050442
H      1.242584    1.871382    0.923083
H      1.236595    0.468090    2.037128
H      1.016119    1.501055   -1.616323
H      0.852619   -0.159794   -2.268407
H      1.001510   -1.919939    1.099537
H      0.844001   -2.177494   -0.666594
H      2.916381   -0.809605   -1.004083
H      3.071462    0.765743   -0.385604
H      3.065780   -0.565277    0.671105
