12

C      1.311391   -0.434551   -0.024067
C      0.027991    0.354880   -0.275570
C     -1.193810   -0.433107    0.203125
O      0.102373    1.580852    0.403097
H      2.186242    0.146362   -0.385837
H      1.282243   -1.401835   -0.569867
H      1.439791   -0.633238    1.061707
H     -0.061324    0.531782   -1.372742
H     -2.120105    0.142169   -0.007852
H     -1.131411   -0.620332    1.296619
H     -1.257446   -1.405948   -0.329590
H     -0.585934    2.172967    0.000979
