20

C      0.626469    0.968511    0.782102
C     -0.089692    0.071055   -0.262821
C      0.954783   -0.815373   -0.997989
O      1.654316   -1.649041   -0.110124
C     -1.157626   -0.820846    0.427488
O     -0.591274   -1.594536    1.450770
N     -0.759038    0.927260   -1.261672
O     -0.291594    1.811544    1.424647
H      1.140852    0.342499    1.544977
H      1.399464    1.587495    0.272528
H      1.664515   -0.175631   -1.573934
H      0.436994   -1.459706   -1.740715
H      2.477857   -1.163754    0.157420
H     -1.628314   -1.491352   -0.326907
H     -1.961280   -0.180889    0.856789
H     -1.331798   -2.134721    1.831199
H     -1.219808    0.340885   -1.995984
H     -0.066206    1.557082   -1.729195
H     -1.493774    1.521351   -0.812535
H      0.235154    2.358166    2.063956
