35

C      1.992676    1.242954   -2.189068
C      1.123624    0.639849   -1.122787
C      1.560785   -0.151657   -0.063239
C      0.400248   -0.453306    0.628893
O      0.320597   -1.196318    1.644117
N     -0.656186    0.141711    0.041190
N     -0.215868    0.827300   -1.010471
C     -1.045590    1.657498   -1.888569
C     -2.027459    0.022963    0.460793
C     -2.388502    0.311039    1.786871
C     -3.718713    0.182433    2.198473
C     -4.694464   -0.241105    1.291750
C     -4.340639   -0.539787   -0.027028
C     -3.011400   -0.412116   -0.441832
C      2.969406   -0.615272    0.234114
C      3.383742   -0.245742    1.662693
C      3.101162   -2.121682   -0.006171
H      1.401288    1.477750   -3.097255
H      2.460688    2.172365   -1.803948
H      2.784910    0.527431   -2.490823
H     -1.961970    1.995187   -1.362451
H     -1.327899    1.078711   -2.792381
H     -0.492575    2.570923   -2.191907
H     -1.641126    0.644617    2.495633
H     -3.993069    0.411260    3.220143
H     -5.723576   -0.340966    1.611736
H     -5.095543   -0.874438   -0.726714
H     -2.745578   -0.662215   -1.460852
H      3.676885   -0.100858   -0.449897
H      2.778935   -0.797115    2.412908
H      3.254588    0.845579    1.826874
H      4.454208   -0.495879    1.823179
H      2.444450   -2.692543    0.684552
H      2.819575   -2.365580   -1.053014
H      4.152388   -2.442991    0.154487
