31

C     -3.515093    2.859742    0.228759
C     -2.167262    2.228233    0.092630
C     -1.021179    3.025415    0.021949
C      0.228052    2.418237   -0.104137
O      1.256605    3.144429   -0.166849
C      0.315855    1.011800   -0.159322
C      1.552920    0.322772   -0.274734
C      1.515530   -1.072870   -0.338416
C      0.342384   -1.778002   -0.270763
C     -0.898367   -1.139385   -0.132641
C     -0.903984    0.269053   -0.081615
O     -2.066738    0.904209    0.038960
O     -2.120154   -1.827492   -0.051627
C     -2.262454   -3.243120   -0.088360
O      0.583538   -3.063447   -0.370706
C      1.884284   -3.225818   -0.513929
C      2.525428   -1.995647   -0.507347
O      2.767876    1.012015   -0.339011
C      3.719237    0.961329    0.717779
H     -3.710892    3.519445   -0.642593
H     -4.303847    2.079161    0.270817
H     -3.556368    3.460457    1.161629
H     -1.101437    4.105583    0.065269
H     -1.714822   -3.704946    0.760024
H     -3.337387   -3.500428    0.004244
H     -1.887110   -3.640339   -1.054881
H      2.367624   -4.187054   -0.625413
H      3.583959   -1.812579   -0.630750
H      4.062456   -0.077910    0.892502
H      3.266455    1.360557    1.649878
H      4.594893    1.586601    0.448654
