38

C     -0.390635   -2.924495   -0.747917
C      0.644835   -1.789618   -0.759009
C      1.853789   -2.166393    0.022301
O      2.437518   -3.229872   -0.123501
C      2.328672   -1.125429    0.958121
C      1.434154    0.087384    0.677578
C      0.209699   -0.405425   -0.153462
C     -1.114329   -0.374056    0.672960
C     -2.053784    0.640359   -0.014729
C     -1.120186    1.553149   -0.818152
C      0.046986    0.665809   -1.248735
C      1.333838    1.412530   -1.248938
C      2.089542    1.107821   -0.206267
C      3.346290    1.808843    0.139344
O      3.807483    1.712975    1.307065
O      4.044364    2.571342   -0.796038
C     -3.035769   -0.079855   -0.965525
C     -2.859246    1.448901    1.021823
H      0.001703   -3.792459   -1.319889
H     -0.599999   -3.271583    0.286559
H     -1.329269   -2.600398   -1.239729
H      0.981983   -1.664370   -1.811871
H      3.406063   -0.914229    0.786970
H      2.182659   -1.479516    2.001108
H      1.157544    0.590196    1.629990
H     -1.616656   -1.351501    0.785497
H     -0.915382   -0.058626    1.719531
H     -0.752677    2.382833   -0.170552
H     -1.624441    2.007255   -1.699743
H     -0.160078    0.232281   -2.252048
H      1.559031    2.191557   -1.964333
H      3.762849    2.633284   -1.765762
H     -3.662467   -0.805862   -0.404216
H     -2.491662   -0.626795   -1.763163
H     -3.710975    0.653945   -1.456238
H     -3.511918    0.773320    1.615610
H     -2.181977    1.982833    1.723021
H     -3.497550    2.203865    0.514209
