22

C     -2.231067    1.776759   -0.474056
C     -1.591187    1.820985    0.767518
C     -0.775422    0.760520    1.173926
C     -0.596545   -0.355698    0.339166
C     -1.241584   -0.390898   -0.909077
C     -2.055990    0.671986   -1.311707
C      0.305940   -1.488707    0.764217
C      1.789672   -1.227869    0.437191
C      2.018700   -1.150866   -1.048412
O      2.308026   -2.195827   -1.688782
O      1.872941    0.050336   -1.739394
O      2.239494   -0.046967    1.049584
H     -2.861144    2.599022   -0.787609
H     -1.725806    2.678105    1.414565
H     -0.282395    0.809476    2.136871
H     -1.108747   -1.237344   -1.571426
H     -2.549525    0.640177   -2.274433
H      0.200669   -1.649774    1.859489
H     -0.017331   -2.436011    0.278577
H      2.384807   -2.086615    0.827405
H      1.611416    0.906713   -1.266008
H      2.305079   -0.235005    2.022394
