20

C     -0.560159   -0.407966    0.795652
C     -2.060675   -0.415481    0.839944
O     -2.686493    0.602887    1.239131
O     -2.761750   -1.536921    0.407679
C     -0.010057    0.218820   -0.509688
C      1.543548    0.197995   -0.502392
C      2.133589    1.088797    0.555865
O      2.263836    2.322034    0.337337
O      2.518905    0.569370    1.788637
C     -0.505404   -0.585606   -1.697154
O     -1.397740   -0.123540   -2.457475
O     -0.015373   -1.866323   -1.927426
O     -0.471182    1.549476   -0.599661
H     -0.192868    0.162809    1.675487
H     -0.191514   -1.451823    0.903182
H     -3.774540   -1.552109    0.417861
H      1.925992    0.531894   -1.492522
H      1.912523   -0.839920   -0.349810
H      2.416730   -0.416320    1.998628
H     -0.087365    1.951928   -1.423275
