27

C      3.371869    1.226057   -0.341217
C      2.640945    1.719494    0.742710
C      1.590809    0.968825    1.280039
C      1.262673   -0.283886    0.733483
C      2.005162   -0.773573   -0.354875
C      3.054542   -0.019636   -0.889082
C      0.118015   -1.090227    1.301893
C     -1.240776   -0.804406    0.623685
C     -1.695592    0.658601    0.823329
C     -3.117665    0.854674    0.392767
O     -4.060674    0.538005    1.166338
O     -3.396583    1.353348   -0.875813
C     -1.216492   -1.208483   -0.833442
O     -0.859721   -0.387532   -1.720491
O     -1.535324   -2.511198   -1.205954
H      4.184145    1.808633   -0.756239
H      2.887673    2.684377    1.166462
H      1.032092    1.364547    2.119009
H      1.769147   -1.736531   -0.790604
H      3.621373   -0.401021   -1.728537
H      0.029736   -0.891001    2.392692
H      0.348747   -2.174762    1.209829
H     -1.987272   -1.450883    1.137506
H     -1.613547    0.930953    1.898241
H     -1.043139    1.353752    0.252404
H     -4.352707    1.477641   -1.186396
H     -1.797437   -3.205767   -0.516871
