48

C      1.987246   -0.354064    0.808870
C      1.233542    0.610038   -0.130935
C      1.484541    0.243635   -1.617150
C      2.596862    1.070222   -2.284749
C      3.950273    0.833064   -1.669075
C      4.658880   -0.347967   -1.949179
C      5.906056   -0.575994   -1.359368
C      6.452771    0.370113   -0.486192
C      5.753030    1.545481   -0.201700
C      4.505014    1.777350   -0.786865
N     -0.218899    0.581989    0.130261
C     -0.575083    1.144117    1.442686
C     -2.077223    1.493704    1.514663
C     -2.960234    0.291585    1.229982
C     -3.463142    0.033084   -0.060628
C     -4.258905   -1.098955   -0.312805
C     -4.515409   -2.008622    0.735465
C     -4.012188   -1.752887    2.016353
C     -3.238198   -0.617072    2.260914
O     -5.242659   -3.176198    0.501212
C     -4.807366   -1.308646   -1.671764
O     -4.115102   -0.998516   -2.678815
N     -6.133370   -1.804041   -1.867238
O     -2.408338    2.591930    0.694422
H      1.535273   -1.368018    0.768591
H      1.951529    0.015308    1.853260
H      3.056237   -0.434235    0.529098
H      1.610046    1.643095    0.046507
H      1.698556   -0.841806   -1.730252
H      0.557650    0.436107   -2.201106
H      2.331411    2.149963   -2.244963
H      2.642705    0.794842   -3.362228
H      4.245987   -1.087232   -2.623022
H      6.449815   -1.485903   -1.579234
H      7.419372    0.192471   -0.030249
H      6.176834    2.277644    0.472875
H      3.972087    2.691091   -0.551786
H     -0.559018   -0.405898    0.076193
H      0.002609    2.074984    1.640894
H     -0.337344    0.412634    2.248275
H     -2.276304    1.819312    2.560065
H     -3.253902    0.721262   -0.870223
H     -4.208016   -2.444935    2.826181
H     -2.848426   -0.448942    3.258402
H     -5.430460   -3.844865    1.239840
H     -6.494385   -1.977938   -2.832958
H     -6.791056   -1.913744   -1.063820
H     -1.953298    2.481454   -0.179557
