28

C     -1.990139    1.011482    0.744316
C     -1.820552   -0.417960    0.194993
C     -0.913606   -0.430833   -1.072619
C      0.508665    0.015550   -0.820160
C      1.494584   -0.919547   -0.462949
C      2.812420   -0.505833   -0.221239
C      3.152224    0.847771   -0.340613
C      2.173401    1.782675   -0.702807
C      0.860472    1.369553   -0.943111
O      4.462772    1.255673   -0.098863
O      3.788394   -1.433769    0.137757
C     -3.194656   -0.929934   -0.186012
O     -3.777541   -1.795618    0.522630
O     -3.847428   -0.408239   -1.300532
N     -1.261502   -1.277655    1.250668
H     -2.372745    1.694611   -0.044661
H     -1.024796    1.411212    1.119466
H     -2.707705    1.015753    1.593400
H     -1.357599    0.220044   -1.858536
H     -0.898471   -1.457328   -1.502585
H      1.238753   -1.967822   -0.369791
H      2.429312    2.830211   -0.798383
H      0.116957    2.105730   -1.222511
H      4.738323    2.227677   -0.177485
H      3.573362   -2.419485    0.232724
H     -4.773293   -0.728373   -1.558144
H     -1.042999   -2.221766    0.855255
H     -0.366606   -0.873778    1.610755
