38

C      4.956081    2.594124    1.092096
C      4.006094    1.873891    0.139341
C      3.353663    0.662138    0.821386
C      2.487753   -0.165756   -0.141910
C      1.151974    0.521405   -0.472987
C      0.306787   -0.273734   -1.484802
C     -0.151695   -1.665189   -1.003781
C     -0.942269   -1.675012    0.319945
C     -2.196277   -0.782478    0.336118
C     -3.257515   -1.226379   -0.684952
C     -4.536937   -0.384067   -0.594696
C     -5.298368   -0.658332    0.669481
O     -6.023895   -1.683985    0.753983
O     -5.188142    0.193466    1.764947
H      4.405158    2.953239    1.987459
H      5.406337    3.469065    0.577502
H      5.772720    1.912535    1.412412
H      4.579196    1.541058   -0.753255
H      3.228568    2.594863   -0.188889
H      2.741006    0.997313    1.687134
H      4.156606    0.000287    1.214546
H      3.053544   -0.373280   -1.076483
H      2.280974   -1.138651    0.351730
H      1.352779    1.514769   -0.925195
H      0.573515    0.699617    0.457721
H      0.896225   -0.403315   -2.418602
H     -0.583483    0.330167   -1.761182
H     -0.768313   -2.129192   -1.802250
H      0.734349   -2.324872   -0.891131
H     -0.271996   -1.367339    1.150381
H     -1.246386   -2.722004    0.537897
H     -2.629232   -0.839919    1.357694
H     -1.918770    0.278161    0.160746
H     -3.504531   -2.300738   -0.536369
H     -2.850508   -1.108024   -1.711266
H     -4.287251    0.696803   -0.663919
H     -5.188615   -0.627622   -1.461635
H     -4.599144    1.016988    1.732867
