32

C     -3.370213    1.978321    1.025067
C     -2.284143    1.086058    0.497874
C     -1.577361    1.443355   -0.650048
C     -0.542102    0.636479   -1.148408
C     -0.151332   -0.535406   -0.431545
C     -0.891452   -0.898787    0.734025
C     -1.938881   -0.078823    1.182026
C     -0.630256   -2.179321    1.491588
C      1.043955   -1.383667   -0.875956
C      2.424445   -0.856970   -0.407386
C      2.455939   -0.572447    1.069834
O      2.978016   -1.403333    1.860694
O      1.895803    0.600595    1.568575
N      2.818246    0.337141   -1.152993
C      0.128539    1.104671   -2.417898
H     -3.869657    2.522650    0.195356
H     -4.143514    1.384278    1.557292
H     -2.932011    2.715751    1.729509
H     -1.844048    2.357779   -1.168242
H     -2.495128   -0.348642    2.072377
H      0.429964   -2.245978    1.801823
H     -0.886584   -3.049651    0.851965
H     -1.243607   -2.247447    2.415262
H      0.939498   -2.426519   -0.515678
H      1.048382   -1.512676   -1.975411
H      3.171843   -1.656742   -0.619094
H      1.898492    0.796124    2.562352
H      2.935450    0.070763   -2.157904
H      3.767298    0.634503   -0.827259
H      0.506156    0.271689   -3.038330
H     -0.594769    1.652966   -3.059034
H      0.953033    1.803285   -2.170431
