45

C     -0.956819   -2.155128   -1.840334
C     -1.708021   -1.054982   -2.589398
C     -1.358354    0.349052   -2.072551
C     -1.900921    0.596169   -0.675833
C     -1.036474    0.459535    0.433595
C     -1.525533    0.698081    1.727132
C     -2.857235    1.044528    1.928415
C     -3.744786    1.148153    0.848963
C     -3.265496    0.935044   -0.464455
O     -4.151976    1.084107   -1.536494
C     -5.164108    1.489283    1.131951
O     -5.435044    2.251941    2.098954
C     -6.297043    0.951451    0.311410
O      0.299590    0.082046    0.216142
C      1.261518   -0.145362    1.242169
C      2.577354   -0.587101    0.606430
C      3.650920   -0.840915    1.674617
C      4.964130   -1.350895    1.067309
C      5.641315   -0.297717    0.246043
N      6.317247    0.746364    0.761229
N      6.700707    1.430659   -0.302289
N      6.279992    0.849148   -1.412391
N      5.603523   -0.244141   -1.099910
H     -1.271906   -2.187046   -0.776222
H     -1.185005   -3.138989   -2.301460
H      0.139380   -1.983789   -1.895713
H     -1.435712   -1.113741   -3.665339
H     -2.800954   -1.237419   -2.507940
H     -0.256689    0.488988   -2.110178
H     -1.751744    1.114055   -2.773242
H     -0.882431    0.611977    2.592072
H     -3.202906    1.209074    2.941978
H     -3.911792    0.917540   -2.503524
H     -7.209631    0.860385    0.937825
H     -6.512720    1.642086   -0.530117
H     -6.048168   -0.056924   -0.081512
H      1.421975    0.793779    1.815527
H      0.894173   -0.942578    1.925009
H      2.920312    0.206687   -0.092035
H      2.402445   -1.518079    0.023642
H      3.277785   -1.608123    2.387950
H      3.842137    0.092449    2.249154
H      4.772231   -2.251072    0.443850
H      5.648139   -1.651883    1.889559
H      7.256596    2.313306   -0.269987
