40

C     -2.401467   -0.291106    0.907834
C     -3.246727    0.375290    1.995847
O     -4.474055    0.833156    1.465583
C     -4.228012    1.875671    0.543626
C     -3.464542    1.357265   -0.679419
N     -2.282714    0.589236   -0.262310
C     -1.133846    0.446869   -1.126628
C     -1.208130    0.711794   -2.505828
C     -0.067193    0.559350   -3.293931
O     -0.132046    0.792480   -4.531785
C      1.133883    0.143546   -2.698029
C      1.139509   -0.107520   -1.306641
O      0.021924    0.046987   -0.601183
C      2.323862   -0.534713   -0.669092
C      3.486494   -0.719950   -1.436745
C      3.478667   -0.471110   -2.810613
C      2.311553   -0.039421   -3.442180
C      2.357198   -0.799821    0.791110
C      2.918089   -1.992257    1.282922
C      2.944732   -2.246378    2.657694
C      2.416785   -1.313218    3.553341
C      1.864564   -0.122056    3.076308
C      1.836851    0.137415    1.702825
H     -1.403156   -0.525145    1.336716
H     -2.881787   -1.243865    0.596879
H     -2.678690    1.203776    2.478472
H     -3.461490   -0.373133    2.787516
H     -5.203235    2.285493    0.205989
H     -3.673102    2.715209    1.022394
H     -4.129526    0.705485   -1.286284
H     -3.162513    2.236428   -1.288613
H     -2.137646    1.009787   -2.973038
H      4.407861   -1.043313   -0.968027
H      4.383101   -0.611914   -3.388387
H      2.331463    0.145529   -4.509217
H      3.320978   -2.732124    0.602300
H      3.372547   -3.168835    3.028545
H      2.437744   -1.512102    4.617031
H      1.461073    0.602893    3.771389
H      1.420999    1.074320    1.353628
