25

C      2.057416    1.948907    1.099592
C      3.264498    1.344742    0.682645
C      3.256664    0.064330    0.099327
C      2.027702   -0.578069   -0.045549
C      0.856548    0.007281    0.362922
C      0.831476    1.277687    0.938930
C     -0.158264   -0.882162    0.068923
C      0.460419   -1.975264   -0.530411
N      1.798538   -1.785895   -0.589936
C     -1.632414   -0.680196    0.253520
C     -2.217915    0.116995   -0.917383
N     -3.655978    0.318596   -0.744880
H      2.075388    2.935472    1.544022
H      4.201326    1.871383    0.809775
H      4.175552   -0.404105   -0.228754
H     -0.097369    1.736289    1.252159
H     -0.042617   -2.854486   -0.911457
H      2.505194   -2.441245   -0.991950
H     -1.813621   -0.139633    1.207321
H     -2.133067   -1.670404    0.320000
H     -2.034581   -0.431092   -1.868704
H     -1.713686    1.107095   -0.983840
H     -4.024750    0.863610   -1.557404
H     -4.146056   -0.604652   -0.706119
H     -3.840404    0.854814    0.134069
