33

C     -4.148506   -1.243299   -0.402138
C     -3.352425   -0.283293    0.490005
C     -1.861951   -0.427501    0.256785
C     -1.029032   -0.888030    1.291203
C      0.346523   -1.026428    1.086448
C      0.914160   -0.712628   -0.157419
C      0.087400   -0.249859   -1.192312
C     -1.288018   -0.110561   -0.988821
C      2.402618   -0.839760   -0.365492
C      3.178680    0.338222    0.261819
C      2.859738    1.665564   -0.442194
C      4.686785    0.065356    0.207276
C     -3.784012    1.144643    0.289986
O     -3.806260    1.934207    1.272052
O     -4.112015    1.614384   -0.979408
H     -3.838519   -2.291174   -0.201204
H     -5.234015   -1.153853   -0.182489
H     -3.985091   -1.025183   -1.478933
H     -3.592074   -0.558840    1.541868
H     -1.442130   -1.139203    2.260154
H      0.971045   -1.377292    1.898821
H      0.508319    0.008511   -2.156130
H     -1.903666    0.248076   -1.803426
H      2.739498   -1.793795    0.096990
H      2.637743   -0.912685   -1.450696
H      2.891333    0.432011    1.332823
H      3.090518    1.599598   -1.527175
H      3.458268    2.489421    0.001867
H      1.787573    1.924356   -0.316282
H      4.927739   -0.870554    0.755219
H      5.245726    0.896685    0.687727
H      5.028965   -0.036448   -0.845233
H     -4.384921    2.579354   -1.122066
