33

C      5.557363    0.606649   -1.078728
O      4.269434    0.240437   -0.638669
C      4.314857   -0.061978    0.738939
C      2.946736   -0.452427    1.200701
O      2.786951   -1.533170    1.830427
N      1.832416    0.418473    0.958816
C      0.471932    0.095702    1.383638
C     -0.123548   -1.003818    0.497932
C     -1.564479   -1.243501    0.854037
O     -1.832622   -2.074557    1.765882
N     -2.629032   -0.505150    0.230741
C     -2.455437    0.400245   -0.890981
C     -3.858764    0.848625   -1.278665
C     -4.761467    0.475977   -0.107553
C     -4.008925   -0.589935    0.675761
H      5.492833    0.915030   -2.142860
H      6.257754   -0.255527   -1.018578
H      5.956452    1.470511   -0.502624
H      4.631576    0.826127    1.329594
H      5.019720   -0.902816    0.933588
H      2.005880    1.345905    0.511778
H     -0.155609    1.012678    1.311497
H      0.477716   -0.226597    2.446463
H     -0.025376   -0.728031   -0.572328
H      0.444226   -1.945625    0.641052
H     -1.971693   -0.123425   -1.742742
H     -1.841408    1.271531   -0.580012
H     -4.188004    0.301310   -2.186958
H     -3.892361    1.939663   -1.479705
H     -4.920454    1.368283    0.535101
H     -5.746615    0.100813   -0.459010
H     -4.077783   -0.391275    1.767280
H     -4.412271   -1.600128    0.448503
