14

C     -1.714934   -0.173181    0.263428
C     -0.327726    0.449345    0.084189
C      0.734970   -0.643985   -0.087524
N      2.038224   -0.049068   -0.371157
O     -0.015088    1.235314    1.204913
H     -1.978591   -0.789680   -0.622359
H     -2.477149    0.627525    0.370350
H     -1.739113   -0.812376    1.172000
H     -0.335381    1.080282   -0.835604
H      0.449143   -1.302967   -0.937335
H      0.795672   -1.268819    0.832344
H      2.396965    0.392216    0.506733
H      2.699394   -0.826201   -0.600336
H     -0.526386    2.081597    1.113350
