15

C      0.453928    0.673496    0.948255
C     -0.943587    0.621005    0.960749
C     -1.629842   -0.093020   -0.031570
C     -0.911028   -0.752789   -1.034296
C      0.486528   -0.701066   -1.047902
C      1.175850    0.012528   -0.056409
N      2.604784    0.065804   -0.069756
O     -3.021564   -0.152716   -0.029898
H      0.973355    1.227978    1.719711
H     -1.491320    1.134618    1.740601
H     -1.435739   -1.305681   -1.803099
H      1.031282   -1.215885   -1.829307
H      3.151031   -0.423117   -0.813693
H      3.126893    0.594559    0.664200
H     -3.570572    0.314288    0.682413
