23

C      2.950691   -1.267181   -0.129885
C      2.347654   -1.214902   -1.388955
C      1.154783   -0.507312   -1.566822
C      0.548606    0.148980   -0.480793
C      1.171473    0.100200    0.781129
C      2.364088   -0.608752    0.953543
C     -0.730141    0.931009   -0.686735
C     -0.424060    2.400962   -0.767439
O     -0.582309    3.020799   -1.852192
O      0.055303    3.082565    0.345276
N     -1.684857    0.660783    0.393914
C     -2.387146   -0.585630    0.493999
O     -2.225518   -1.481201   -0.378310
N     -3.274230   -0.819517    1.586641
H      3.874443   -1.814765    0.005354
H      2.806070   -1.721036   -2.228709
H      0.704792   -0.472140   -2.551199
H      0.734323    0.610055    1.630410
H      2.835040   -0.645462    1.927369
H     -1.205224    0.629697   -1.648060
H     -1.827215    1.368066    1.150725
H     -3.419269   -0.089674    2.318842
H     -3.787295   -1.725545    1.665083
