22

C     -0.479259    1.210175   -0.274913
C      0.830115    0.791600    0.419609
C      1.329803   -0.545916   -0.170492
O      0.339691   -1.553517   -0.046163
C     -0.806696   -1.221741   -0.815082
C     -1.488127    0.047772   -0.262487
O     -1.938068   -0.171179    1.051959
O     -1.708957   -2.297702   -0.813984
C      2.560404   -0.998482    0.558656
O      3.697544   -0.846294    0.039281
O      2.455313   -1.551833    1.829162
O      1.807506    1.782839    0.227135
O     -1.020736    2.330866    0.375710
H     -0.245233    1.472889   -1.334499
H      0.638020    0.650641    1.510796
H      1.601616   -0.403648   -1.243684
H     -0.520279   -1.046698   -1.878002
H     -2.344289    0.320525   -0.924454
H     -2.849387   -0.559313    0.986043
H     -1.775681   -2.630319    0.119088
H      1.618847    2.504498    0.882280
H     -1.702146    2.714839   -0.235961
