40

C      4.273247   -2.071861   -1.365853
C      3.570776   -2.109598   -2.566185
C      2.295137   -1.551801   -2.645804
C      1.693055   -0.946426   -1.532381
C      2.407536   -0.923247   -0.296309
C      3.697764   -1.484965   -0.239974
C      1.859766   -0.370246    0.954792
C      2.484485    0.613554    1.611874
C      1.967076    1.177568    2.868350
O      0.905365    0.743589    3.389336
O      2.661084    2.206430    3.491038
O      0.426413   -0.373548   -1.770069
C     -0.451453    0.280367   -0.856064
C     -1.513702    1.040634   -1.673171
C     -2.527086    1.710895   -0.729933
C     -3.073742    0.675753    0.271554
C     -1.899950   -0.081667    0.936584
O     -1.083864   -0.696686   -0.047948
C     -2.429707   -1.173386    1.878794
O     -1.366893   -1.876377    2.463523
O     -3.831913    1.328075    1.258838
O     -3.577720    2.249331   -1.490938
O     -0.914710    1.989464   -2.521339
H      5.263827   -2.503920   -1.304903
H      4.016813   -2.567489   -3.439687
H      1.768413   -1.578411   -3.591728
H      4.256944   -1.483016    0.688372
H      0.949727   -0.793485    1.351305
H      3.400846    1.028961    1.209002
H      0.120538    1.019287   -0.252202
H     -2.054633    0.305577   -2.310361
H     -2.006806    2.522479   -0.165583
H     -3.706131   -0.063359   -0.277614
H     -1.300430    0.629887    1.552150
H     -3.073746   -0.728739    2.671657
H     -3.050368   -1.892878    1.302817
H     -1.007994   -1.298928    3.186680
H     -4.747952    1.440428    0.893168
H     -3.984273    2.975586   -0.949834
H     -0.415740    2.632171   -1.951951
