50

C      7.751829    0.388490    1.275788
C      6.444983   -0.397448    1.366089
C      5.950784   -0.813165   -0.025500
C      4.649040   -1.622760    0.071598
C      4.142724   -2.065647   -1.309496
C      3.659123   -0.903824   -2.137726
C      2.494776   -0.265242   -1.953833
C      1.496701   -0.638424   -0.930715
C      0.376827    0.076097   -0.776927
C     -0.654536   -0.277413    0.219505
O     -0.513111   -1.298707    0.947325
C     -1.919239    0.532878    0.308913
C     -2.398991    0.683776    1.760606
C     -3.592602    1.644406    1.901442
C     -4.887566    1.120381    1.244175
C     -5.154044    1.779253   -0.121094
C     -6.420728    1.232974   -0.809767
C     -6.155385    0.017444   -1.714998
C     -5.916611   -1.237720   -0.935873
O     -6.861111   -1.784441   -0.309479
O     -4.651077   -1.808741   -0.905602
H      8.073337    0.697494    2.294972
H      7.613569    1.300988    0.654057
H      8.549127   -0.242444    0.827215
H      6.612539   -1.301828    1.992142
H      5.677003    0.236216    1.861475
H      6.730772   -1.430844   -0.523926
H      5.778358    0.099563   -0.637667
H      4.835112   -2.533016    0.682113
H      3.871983   -1.021886    0.591614
H      4.969474   -2.572534   -1.852846
H      3.334566   -2.818543   -1.197427
H      4.299918   -0.568922   -2.944657
H      2.271094    0.567396   -2.610507
H      1.662492   -1.505666   -0.305693
H      0.207851    0.942938   -1.405055
H     -1.750371    1.543364   -0.124110
H     -2.695628    0.016816   -0.292750
H     -1.562442    1.082030    2.376390
H     -2.676300   -0.311439    2.172471
H     -3.318867    2.649863    1.512476
H     -3.785224    1.772447    2.989429
H     -4.851239    0.016489    1.151189
H     -5.743485    1.358333    1.914138
H     -5.297704    2.869158    0.050540
H     -4.277286    1.674734   -0.793084
H     -6.826015    2.041154   -1.459130
H     -7.213072    1.000229   -0.062295
H     -7.041804   -0.141845   -2.366733
H     -5.289539    0.217590   -2.384040
