39

C     -0.959358    3.726969    0.565460
C     -2.012793    2.625054    0.566823
O     -1.478814    1.423782    0.015862
C     -0.579177    0.596326    0.699574
O     -0.309277    0.820963    1.912657
C      0.048095   -0.578420   -0.038273
C      1.116338   -1.320068    0.829723
C      2.501549   -0.636650    0.826830
N      2.382669    0.786473    0.465470
C      1.932681    0.941343   -0.935338
C      0.775400   -0.021531   -1.294748
C      3.662735    1.480165    0.670242
C     -1.084431   -1.564606   -0.374041
C     -1.840616   -2.122827    0.681244
C     -2.877096   -3.024140    0.425886
C     -3.181395   -3.387668   -0.885104
C     -2.450251   -2.849730   -1.943757
C     -1.411335   -1.946872   -1.697162
H     -1.404283    4.669899    0.947030
H     -0.588972    3.894824   -0.468014
H     -0.104486    3.446494    1.215749
H     -2.870789    2.950097   -0.058391
H     -2.385185    2.446671    1.598971
H      0.761362   -1.432400    1.877445
H      1.254880   -2.354788    0.442925
H      3.175696   -1.159481    0.109284
H      2.946600   -0.742026    1.841542
H      1.578479    1.986224   -1.076699
H      2.773119    0.772823   -1.647569
H      1.208946   -0.872032   -1.867353
H      0.061795    0.506030   -1.966053
H      3.568137    2.549916    0.383707
H      4.475483    1.013438    0.070018
H      3.943324    1.450186    1.744889
H     -1.629876   -1.855511    1.708928
H     -3.445784   -3.440512    1.247348
H     -3.984849   -4.085918   -1.081081
H     -2.689087   -3.132717   -2.960950
H     -0.879434   -1.559783   -2.553070
