40

C     -1.938386    1.138472   -2.044601
C     -2.810909    0.440109   -1.037408
C     -2.249984   -0.455627   -0.102019
C     -3.083491   -1.116185    0.828938
C     -4.458991   -0.837747    0.841689
C     -5.008603    0.053855   -0.079781
C     -4.192661    0.685256   -1.018641
C     -2.517377   -2.084584    1.831924
N     -0.837782   -0.703340   -0.116075
C      0.037398   -0.104614    0.854135
O     -0.457863    0.515920    1.835136
C      1.543835   -0.269041    0.780566
C      2.079186   -0.573798   -0.641838
C      3.606465   -0.393688   -0.752666
C      4.290579   -0.422289    0.615571
C      3.702284    0.639334    1.572046
N      2.248743    0.890642    1.383656
C      2.005845    2.165660    0.675281
H     -1.132382    1.695914   -1.521884
H     -1.480772    0.389805   -2.724757
H     -2.517610    1.861154   -2.657836
H     -5.110086   -1.317610    1.562077
H     -6.072049    0.255309   -0.067101
H     -4.640383    1.371264   -1.727024
H     -1.712583   -2.697437    1.374003
H     -3.300703   -2.781523    2.199051
H     -2.105281   -1.525821    2.697454
H     -0.452525   -1.225379   -0.932456
H      1.758243   -1.162101    1.410035
H      1.829056   -1.626110   -0.900369
H      1.585477    0.086412   -1.388666
H      3.841585    0.569090   -1.254765
H      4.030274   -1.200152   -1.389752
H      5.381083   -0.247523    0.490183
H      4.166231   -1.434086    1.060628
H      3.863663    0.294635    2.615636
H      4.292743    1.578228    1.469130
H      2.504881    2.190005   -0.314538
H      0.921307    2.347415    0.529857
H      2.391546    3.010172    1.285207
