36

C     -3.750554    1.318533    0.043554
C     -2.448447    0.546412    0.075414
C     -1.204204    1.194479   -0.132926
C     -0.024696    0.429101   -0.208580
C     -0.061611   -0.968544   -0.028272
C      1.225721   -1.766437   -0.129671
C      2.317007   -1.027103   -0.913222
C      2.465197    0.423630   -0.414093
O      1.193162    1.069703   -0.489523
C      3.444895    1.191037   -1.310264
C      2.968777    0.460592    1.011457
O      4.031624   -0.141071    1.325959
O      2.272822    1.178001    1.980787
C     -1.280499   -1.596804    0.315111
C     -2.471333   -0.842836    0.347686
O     -3.668689   -1.498604    0.660601
C     -1.327325   -3.083448    0.592719
C     -1.125288    2.694502   -0.311824
H     -4.509405    0.766652   -0.549385
H     -4.121709    1.467353    1.079112
H     -3.660635    2.306306   -0.448449
H      1.592142   -1.988455    0.895753
H      1.039865   -2.732803   -0.645457
H      2.033622   -1.020841   -1.989531
H      3.279164   -1.577698   -0.821626
H      4.445719    0.707258   -1.307218
H      3.553343    2.238124   -0.953460
H      3.068891    1.219846   -2.355531
H      2.603007    1.214307    2.937672
H     -4.552960   -1.027657    0.798202
H     -2.235893   -3.378629    1.156581
H     -0.461975   -3.393731    1.214632
H     -1.309332   -3.640534   -0.367221
H     -1.729451    3.206260    0.466586
H     -1.499562    2.970733   -1.319788
H     -0.091391    3.082365   -0.205786
