25

C     -3.621343    1.030994   -0.122198
C     -2.485319    0.126326    0.253140
C     -1.170741    0.445156   -0.114256
N     -0.132745   -0.391304    0.196928
C     -0.366964   -1.573020    0.856088
O      0.581096   -2.361806    1.122787
C     -1.667675   -1.928631    1.224452
C     -2.727984   -1.080048    0.916157
C      1.204653   -0.011011   -0.185493
C      2.219034    0.097426    0.781975
C      3.512495    0.475282    0.408547
C      3.802773    0.750821   -0.930440
C      2.799548    0.650934   -1.898230
C      1.504680    0.273735   -1.529109
H     -4.458351    0.931611    0.601422
H     -3.985772    0.764427   -1.136178
H     -3.292054    2.091911   -0.122400
H     -0.980361    1.374580   -0.640350
H     -1.857491   -2.862878    1.738754
H     -3.735952   -1.363983    1.192619
H      2.003036   -0.101376    1.824114
H      4.289175    0.557454    1.157866
H      4.804409    1.043472   -1.217729
H      3.025337    0.865309   -2.934823
H      0.736517    0.194620   -2.288066
