43

C      3.984720    2.997553    0.715090
C      2.916405    2.546510    1.711086
C      2.690415    1.026538    1.695971
C      1.945929    0.555274    0.435350
C      1.728996   -0.966251    0.409928
C      0.710183   -1.437475    1.463793
C      0.289130   -2.906234    1.265957
C     -0.728525   -3.111049    0.128506
C     -2.141271   -2.586920    0.479016
C     -2.764705   -1.750887   -0.650217
C     -2.135404   -0.352713   -0.748515
C     -2.792003    0.472923   -1.859950
C     -2.152963    1.861373   -1.959404
C     -2.800564    2.659750   -3.045956
O     -2.357136    2.604455   -4.223144
O     -3.924761    3.427302   -2.769107
H      4.928860    2.434822    0.875257
H      3.638721    2.851436   -0.328723
H      4.190382    4.078983    0.860653
H      3.247701    2.841366    2.730491
H      1.962642    3.078119    1.501859
H      3.665628    0.499155    1.782770
H      2.086781    0.771356    2.592270
H      0.965609    1.074821    0.355309
H      2.541613    0.822253   -0.462708
H      1.371920   -1.231622   -0.606057
H      2.698283   -1.488528    0.565806
H     -0.179901   -0.775262    1.461033
H      1.176835   -1.355304    2.468361
H      1.192286   -3.521985    1.061483
H     -0.151210   -3.287706    2.213304
H     -0.344640   -2.667461   -0.812268
H     -0.802720   -4.202831   -0.069617
H     -2.802452   -3.461103    0.667568
H     -2.145855   -1.995485    1.419963
H     -3.851511   -1.639351   -0.442203
H     -2.659440   -2.288668   -1.618200
H     -2.260669    0.175785    0.222156
H     -1.049468   -0.441722   -0.961991
H     -2.673224   -0.057192   -2.831051
H     -3.878522    0.581449   -1.645939
H     -2.270666    2.400713   -0.994514
H     -1.065426    1.763813   -2.171276
