48

C      2.441840   -2.925190   -0.213707
C      1.098666   -2.407783    0.350186
C      1.027159   -0.906833    0.281864
C      2.147488   -0.119036    0.331387
C      1.731241    1.197035    0.299976
C      0.343397    1.149757    0.249926
N     -0.085047   -0.140791    0.248432
C     -1.438467   -0.611814    0.126612
C     -2.248347   -0.166135   -0.928140
C     -3.581563   -0.599624   -1.050597
C     -4.095822   -1.504137   -0.092450
C     -3.279532   -1.949565    0.956967
C     -1.962168   -1.505897    1.067188
O     -5.411463   -1.960482   -0.175366
C     -4.407064   -0.093133   -2.176658
O     -5.597620   -0.476863   -2.331090
O     -3.869774    0.819932   -3.081009
C     -0.529817    2.345826    0.243685
C     -1.686561    2.397354    1.041497
C     -2.504649    3.530956    1.026017
C     -2.170130    4.625568    0.225043
C     -1.013342    4.590664   -0.557569
C     -0.192714    3.458571   -0.545885
C      3.500910   -0.688685    0.393836
C      4.629220    0.098022    0.670954
C      5.891373   -0.496479    0.751349
C      6.033978   -1.872244    0.551608
C      4.915236   -2.661716    0.269072
C      3.638633   -2.082545    0.202575
H      2.389296   -2.921116   -1.323902
H      2.581117   -3.978558    0.113354
H      0.263021   -2.859383   -0.225442
H      1.005571   -2.716836    1.413103
H      2.352644    2.082365    0.325909
H     -1.828045    0.520529   -1.652489
H     -3.670054   -2.638720    1.694962
H     -1.353503   -1.846109    1.894976
H     -5.794835   -2.607869    0.503544
H     -4.421557    1.174594   -3.853026
H     -1.949716    1.569981    1.687720
H     -3.395370    3.562909    1.640056
H     -2.804222    5.502630    0.214887
H     -0.752863    5.440708   -1.174852
H      0.695920    3.444719   -1.164816
H      4.536227    1.163826    0.833566
H      6.761154    0.110368    0.967523
H      7.014905   -2.326393    0.606602
H      5.045249   -3.722378    0.093511
