18

C     -3.161377   -0.373991    0.760307
C     -2.867924   -1.721069    0.722206
O     -1.611770   -1.889903    0.379785
C     -1.062595   -0.711527    0.189420
C     -1.998728    0.281850    0.417268
C      0.345491   -0.531012   -0.204366
O      1.070870   -1.552391   -0.345501
N      0.897352    0.776365   -0.430065
C      2.300397    0.979200   -0.783103
C      3.173075    0.740029    0.407070
O      3.210190    1.581658    1.342719
O      3.921791   -0.426282    0.499868
H     -4.112265    0.077068    1.010306
H     -3.556096   -2.527057    0.938910
H     -1.866336    1.352616    0.349557
H      0.285447    1.619498   -0.368490
H      2.447316    2.024144   -1.132256
H      2.585162    0.300803   -1.616008
