36

C      2.328638    0.428937    2.941205
C      0.822460    0.197659    2.756398
C      0.255910   -0.532944    3.982774
C      0.532320   -0.590451    1.445741
C     -0.541109    0.079115    0.547891
C     -1.930240   -0.002821    1.203402
C     -0.566036   -0.572729   -0.867617
C      0.117613    0.290899   -1.961559
C      1.623002    0.451806   -1.697443
C     -0.093260   -0.323837   -3.365375
C     -1.536521   -0.301670   -3.796942
C     -2.163389    0.838498   -4.100885
H      2.519279    1.006602    3.870993
H      2.868975   -0.540325    3.002731
H      2.731756    1.012290    2.085701
H      0.347555    1.202697    2.713103
H      0.415035    0.075408    4.898686
H      0.754839   -1.516960    4.116595
H     -0.834560   -0.702471    3.868219
H      0.222487   -1.635331    1.672255
H      1.468932   -0.691741    0.857511
H     -0.297914    1.160139    0.446356
H     -1.944989    0.549461    2.165207
H     -2.692390    0.467398    0.545733
H     -2.216051   -1.061084    1.385130
H     -0.100994   -1.583613   -0.845311
H     -1.619995   -0.742097   -1.177868
H     -0.335395    1.307186   -1.951443
H      1.799481    1.018528   -0.760066
H      2.099852    1.027301   -2.519339
H      2.116756   -0.540965   -1.625330
H      0.266200   -1.376129   -3.366581
H      0.504803    0.230336   -4.122144
H     -2.072982   -1.241389   -3.889245
H     -3.200338    0.819306   -4.419840
H     -1.649732    1.792993   -4.038646
