26

C     -1.314326   -2.309792   -0.304445
C     -1.240716   -0.783536   -0.441692
C     -0.455787   -0.213900    0.727061
O     -1.027218   -0.104476    1.847014
C      0.965624    0.199806    0.601320
C      1.812298   -0.355290   -0.379030
C      3.147961    0.048307   -0.472376
C      3.656160    1.003009    0.410533
C      2.830988    1.553243    1.392985
C      1.495028    1.153037    1.491976
N     -2.602885   -0.211126   -0.515911
C     -2.580886    1.219452   -0.844974
H     -0.293251   -2.743833   -0.248711
H     -1.828166   -2.747979   -1.186241
H     -1.874684   -2.592584    0.612545
H     -0.714857   -0.560511   -1.396457
H      1.458114   -1.115895   -1.060932
H      3.791590   -0.384801   -1.227227
H      4.690496    1.313028    0.336226
H      3.226372    2.291305    2.078921
H      0.872325    1.597816    2.258400
H     -3.113466   -0.349010    0.387878
H     -3.141210   -0.699367   -1.270048
H     -2.089718    1.804806   -0.038076
H     -3.621709    1.593820   -0.953500
H     -2.048075    1.394470   -1.805237
