30

C      2.924218    1.145685    0.865888
C      1.732944    0.273672    0.431860
C      0.469772    0.685909    1.208965
C     -0.687119   -0.239439    0.908971
C     -0.806267   -1.442963    1.624832
C     -1.845659   -2.332138    1.347526
C     -2.771751   -2.034469    0.348344
C     -2.660364   -0.848472   -0.380544
C     -1.615717    0.059403   -0.112530
O     -1.471966    1.254029   -0.837809
C     -2.321176    1.659021   -1.906229
N      1.477091    0.389092   -1.017471
C      2.345245   -0.489547   -1.804575
H      3.851870    0.827731    0.347840
H      2.732850    2.215824    0.636311
H      3.095427    1.041676    1.958604
H      1.965106   -0.782066    0.704298
H      0.202175    1.737979    0.968421
H      0.679591    0.658037    2.301353
H     -0.090116   -1.693144    2.397980
H     -1.931323   -3.255130    1.906347
H     -3.576266   -2.726449    0.134869
H     -3.390421   -0.648380   -1.152614
H     -1.968586    2.634675   -2.298713
H     -2.284651    0.911795   -2.726898
H     -3.363282    1.778233   -1.541744
H      1.619365    1.376892   -1.334963
H      2.190262   -1.550394   -1.512777
H      2.084933   -0.391724   -2.879423
H      3.413816   -0.215336   -1.678880
