14

C      1.271486   -0.940537    0.048945
C      0.248328   -0.086448   -0.296387
N      0.699017    1.175380   -0.225194
C      1.988489    1.065026    0.145232
N      2.375136   -0.216888    0.323994
C     -1.163437   -0.469244   -0.610106
C     -1.984608   -0.459120    0.637954
O     -2.087282   -1.501150    1.337357
O     -2.597585    0.714793    1.057342
H      1.217840   -2.019663    0.106710
H      0.165679    2.054631   -0.406300
H      2.644223    1.912884    0.292928
H     -1.187351   -1.480179   -1.071635
H     -1.589935    0.250515   -1.340838
