40

C      5.379936    0.537475   -1.149767
C      5.352576    0.643985    0.374635
C      4.808000   -0.623294    1.057353
C      3.353141   -0.974405    0.697426
C      2.355405    0.121622    1.110150
C      0.894556   -0.347544    1.027996
C      0.428558   -0.573280   -0.416087
C     -1.034901   -0.896041   -0.446665
O     -1.402668   -2.099974   -0.522998
N     -2.004551    0.160394   -0.376399
C     -3.415327   -0.070759   -0.218814
C     -3.866938   -1.000527    0.735235
C     -5.232254   -1.185455    0.956294
C     -6.163724   -0.438364    0.237395
C     -5.733970    0.497537   -0.704908
C     -4.361936    0.696261   -0.944174
C     -3.945330    1.666508   -1.984837
O     -2.943303    1.426356   -2.709072
O     -4.657440    2.845584   -2.194938
H      5.899794   -0.391784   -1.465715
H      5.924755    1.408699   -1.570465
H      4.349047    0.545971   -1.561306
H      6.393030    0.807040    0.730278
H      4.763263    1.534853    0.677098
H      4.885629   -0.493418    2.158837
H      5.457428   -1.484639    0.787296
H      3.094273   -1.917529    1.226256
H      3.275591   -1.177225   -0.390599
H      2.560523    0.421448    2.161012
H      2.486360    1.019053    0.468246
H      0.256831    0.436416    1.493331
H      0.763882   -1.280779    1.618467
H      0.613814    0.339063   -1.023368
H      0.994840   -1.412043   -0.874185
H     -1.668426    1.145273   -0.469428
H     -3.159996   -1.563676    1.330979
H     -5.568343   -1.902589    1.694190
H     -7.222211   -0.585251    0.409541
H     -6.479064    1.047766   -1.265266
H     -5.430852    3.117273   -1.600670
