10

C      0.704235   -0.106919   -0.702108
C     -0.225686    0.462829    0.333471
O      0.129562    1.468661    1.005165
C     -1.572708   -0.093643    0.532478
O     -1.975573   -1.063401   -0.162748
O     -2.414806    0.454265    1.492242
O      2.040334    0.170360   -0.379125
H      0.470669    0.357350   -1.682794
H      0.558277   -1.206632   -0.799070
H      2.285696   -0.442869    0.362487
