48

C      4.146278   -3.057836    1.967184
O      3.576246   -2.897177    0.667798
C      3.037319   -1.703120    0.158115
C      3.367348   -0.420012    0.655253
C      2.744385    0.714429    0.095675
C      1.814463    0.586542   -0.945591
C      1.077152    1.813863   -1.455630
C     -0.041960    2.221540   -0.477302
C     -1.223719    1.286915   -0.559666
C     -2.176493    1.294929    0.464075
C     -3.309968    0.458747    0.410690
C     -3.490874   -0.384950   -0.715832
C     -2.544938   -0.363064   -1.748469
C     -1.414774    0.463937   -1.685192
C     -0.353975    0.380001   -2.775020
N      0.510262    1.571268   -2.794406
C      0.530143   -0.862177   -2.587562
C      1.497877   -0.692502   -1.441109
C      2.132717   -1.818292   -0.903203
O     -4.574626   -1.269718   -0.869880
C     -5.613718   -1.496504    0.075472
O     -4.249701    0.452540    1.454661
C     -4.142282    1.210757    2.653176
O      4.315052   -0.294135    1.680434
C      4.784405    0.942622    2.212924
H      5.181775   -2.652225    1.988241
H      3.517658   -2.559801    2.736893
H      4.188770   -4.137174    2.204575
H      2.963859    1.703234    0.474377
H      1.802544    2.655012   -1.532184
H      0.352991    2.255147    0.562652
H     -0.388228    3.246328   -0.735162
H     -2.022393    1.956616    1.305264
H     -2.682672   -1.018471   -2.601236
H     -0.863346    0.297200   -3.762725
H     -0.055888    2.401958   -3.088430
H     -0.102104   -1.761400   -2.429908
H      1.119901   -1.026990   -3.515101
H      1.902800   -2.802434   -1.292539
H     -6.299093   -2.273429   -0.322206
H     -6.203100   -0.564994    0.219566
H     -5.193603   -1.866543    1.036397
H     -3.208036    0.946349    3.190987
H     -4.155836    2.296266    2.419122
H     -5.002439    0.979016    3.309205
H      3.946751    1.499334    2.688318
H      5.249970    1.552993    1.409440
H      5.553101    0.735404    2.983286
