44

C      0.686461   -2.639530    0.633415
C      1.338883   -1.357632    0.190361
C      2.724860   -1.203295    0.324161
C      3.338586   -0.011047   -0.084327
N      2.559343    0.981399   -0.589814
N      1.240160    0.845135   -0.720230
C      0.590785   -0.292762   -0.352777
N     -0.835813   -0.379430   -0.520001
C     -1.606820    0.742099   -1.060453
C     -3.102841    0.414052   -1.118380
N     -3.629803    0.163417    0.243702
C     -4.700669   -0.851740    0.247716
C     -6.001986   -0.312897   -0.393085
O     -6.022625    1.099749   -0.507495
C     -5.577661    1.689774    0.694859
C     -4.077588    1.406009    0.917020
C      4.803504    0.202554    0.039544
C      5.712172   -0.872408   -0.037108
C      7.087773   -0.646776    0.074152
C      7.573794    0.649343    0.256513
C      6.685510    1.724397    0.322613
C      5.309083    1.505436    0.211031
H     -0.059263   -2.426966    1.428137
H      0.183138   -3.123083   -0.230044
H      1.428188   -3.357828    1.043121
H      3.311210   -1.998126    0.766611
H     -1.339779   -1.255322   -0.256121
H     -1.441595    1.642583   -0.431508
H     -1.250319    0.967472   -2.088807
H     -3.643387    1.250812   -1.614938
H     -3.224888   -0.478682   -1.772580
H     -4.367246   -1.780628   -0.265623
H     -4.910347   -1.141327    1.301178
H     -6.886985   -0.659116    0.185256
H     -6.094988   -0.737572   -1.415001
H     -5.738109    2.787024    0.635222
H     -6.177167    1.322685    1.560212
H     -3.889915    1.306881    2.007663
H     -3.481860    2.282530    0.578724
H      5.368218   -1.883801   -0.207257
H      7.778309   -1.478001    0.012068
H      8.639027    0.821168    0.341620
H      7.063421    2.729209    0.460890
H      4.639231    2.354242    0.271486
