39

C      3.416912    0.534472    1.275599
N      3.128186    0.642388   -0.164805
C      3.034312   -0.691416   -0.816523
C      1.617772   -1.041194   -1.308629
N      0.618984   -0.589210   -0.325532
C      0.638241    0.840605    0.027229
C      1.962465    1.508838   -0.440615
C     -0.645426    1.496596   -0.464809
C     -0.695429    2.362875   -1.581723
C     -1.915443    2.857974   -2.046466
C     -3.104689    2.491006   -1.423192
C     -3.079387    1.632896   -0.325813
C     -1.858749    1.134366    0.163508
C     -1.859075    0.233187    1.372234
C     -1.444693   -1.188213    1.049077
C     -0.275938   -1.551291    0.304846
N      0.006920   -2.879171    0.158595
C     -0.756947   -3.870198    0.679514
C     -1.894753   -3.556118    1.407207
C     -2.232355   -2.220486    1.595255
H      4.422526    0.085295    1.420025
H      2.667246   -0.103524    1.792284
H      3.433701    1.539532    1.749253
H      3.720716   -0.703236   -1.689575
H      3.380531   -1.504387   -0.138102
H      1.424329   -0.530688   -2.277353
H      1.559833   -2.128993   -1.518438
H      0.674805    0.927244    1.130955
H      2.085473    2.498678    0.052049
H      1.962167    1.695528   -1.531912
H      0.187827    2.673559   -2.113491
H     -1.938524    3.523284   -2.900150
H     -4.048545    2.872585   -1.790824
H     -4.015821    1.360303    0.145045
H     -1.204360    0.642339    2.168173
H     -2.872959    0.243467    1.830258
H     -0.476557   -4.903710    0.526403
H     -2.508033   -4.341483    1.829989
H     -3.115264   -1.993699    2.180455
