8

C     -0.600835   -0.045938    0.019012
C      0.601445    0.041652    0.001914
C      2.032532    0.146326   -0.018512
O      2.740993   -0.876622    0.166640
O      2.635211    1.376484   -0.242603
C     -2.031931   -0.150549    0.039133
O     -2.717183    0.709297    0.650456
O     -2.660232   -1.200651   -0.616040
