49

C     -4.703418    1.986229    1.209358
C     -4.207298    1.747815   -0.222457
C     -2.818085    2.342437   -0.367948
C     -1.718413    1.586317   -0.306057
C     -1.815888    0.118043   -0.217739
C     -0.678719   -0.687960   -0.061100
C     -0.802724   -2.092401   -0.038825
C     -2.080413   -2.687796   -0.151459
C     -3.212457   -1.861086   -0.292803
C     -3.078521   -0.472489   -0.322802
O     -4.209872    0.335407   -0.478341
O     -2.195207   -4.087981   -0.130273
C     -3.421833   -4.803330   -0.237713
C      0.444921   -2.890850    0.061736
O      0.411186   -4.140531    0.221837
C      1.773119   -2.206128   -0.089298
C      1.719195   -0.811646    0.561995
O      0.585132   -0.095570    0.067562
C      2.964293    0.039076    0.376109
C      4.120480   -0.413434   -0.293893
C      5.239297    0.415783   -0.420744
C      5.230559    1.712030    0.124814
C      4.090137    2.158962    0.797888
C      2.971048    1.332666    0.926326
O      6.327795    2.580059    0.022151
C      7.549766    2.256986   -0.633488
C     -5.155518    2.418862   -1.222332
H     -4.023520    1.493702    1.937678
H     -4.741750    3.073424    1.438433
H     -5.720451    1.558424    1.340969
H     -2.707547    3.419433   -0.418530
H     -0.748219    2.066676   -0.338742
H     -4.203425   -2.284221   -0.383538
H     -4.095976   -4.534070    0.602642
H     -3.211736   -5.891350   -0.189129
H     -3.910896   -4.579322   -1.209200
H      2.567167   -2.817340    0.393133
H      1.987543   -2.112681   -1.175718
H      1.582053   -0.960153    1.656798
H      4.176680   -1.403902   -0.721939
H      6.107246    0.037420   -0.943374
H      4.071341    3.153222    1.226102
H      2.103151    1.704367    1.457712
H      7.361349    2.037218   -1.705609
H      8.027328    1.383128   -0.142025
H      8.238505    3.123701   -0.564235
H     -6.176566    1.989548   -1.132908
H     -4.797148    2.249241   -2.260525
H     -5.213689    3.514062   -1.040354
