48

C     -7.564354    0.569402    2.257980
C     -6.912429   -0.661272    2.177175
C     -5.662177   -0.751906    1.561645
C     -5.054246    0.389476    1.008961
C     -5.713366    1.636905    1.098189
C     -6.967788    1.713488    1.723828
N     -5.139812    2.822889    0.533166
N     -3.745424    0.295197    0.423499
C     -3.387216   -0.712504   -0.539604
O     -4.242632   -1.566144   -0.901987
C     -2.025392   -0.766107   -1.123000
C     -1.504053   -1.992897   -1.570369
C     -0.223670   -2.060395   -2.126594
C      0.553907   -0.901233   -2.257921
C      0.034994    0.326884   -1.822221
C     -1.244942    0.395821   -1.264230
C      1.939632   -0.986030   -2.838024
N      2.841475   -1.652551   -1.901515
C      3.307772   -1.027958   -0.700633
O      2.952032    0.148712   -0.415775
O      4.160777   -1.737959    0.151307
C      4.699813   -1.191756    1.353388
C      5.743829   -0.155638    1.038629
C      6.956356   -0.531989    0.442197
N      7.892131    0.408224    0.142050
C      7.688979    1.727036    0.402674
C      6.494749    2.147856    0.990992
C      5.517986    1.202110    1.308287
H     -8.532282    0.637887    2.737540
H     -7.372030   -1.545078    2.600588
H     -5.156880   -1.708875    1.537538
H     -7.486543    2.661589    1.792094
H     -4.259336    2.797832   -0.026064
H     -5.621215    3.744255    0.634110
H     -3.031622    0.992828    0.727884
H     -2.082193   -2.904095   -1.476687
H      0.163819   -3.017633   -2.453386
H      0.618481    1.234217   -1.918796
H     -1.626127    1.364555   -0.971203
H      1.898308   -1.567393   -3.784680
H      2.338393    0.020593   -3.091286
H      3.172836   -2.618171   -2.123457
H      3.881819   -0.771422    1.978956
H      5.171223   -2.011590    1.935442
H      7.155678   -1.571489    0.214973
H      8.454053    2.449312    0.151175
H      6.327285    3.197054    1.197508
H      4.589401    1.527961    1.760094
