43

C     -0.173805   -1.560234    1.679014
C      0.450698   -1.257536    0.284498
C     -0.047104   -2.324226   -0.701774
C     -1.422827   -1.843231   -1.166261
C     -1.423575   -0.296863   -1.072815
C     -0.052121    0.042411   -0.393457
C      0.143855    1.345295    0.416807
C      1.570927    1.845486    0.351051
C      2.667802    1.146349    0.717817
C      2.587133   -0.232049    1.340627
C      2.000962   -1.287818    0.383315
C      4.021661    1.790170    0.525854
O      4.274058    1.949296   -0.842646
C     -2.803775    0.298933   -0.568359
C     -3.111801    0.006366    0.918932
C     -2.885451    1.827845   -0.784054
O     -3.832452   -0.241669   -1.373645
H     -0.121783   -0.707420    2.379135
H      0.356599   -2.412320    2.155744
H     -1.230851   -1.868214    1.606273
H     -0.102828   -3.337331   -0.244601
H      0.625061   -2.383209   -1.587703
H     -1.622293   -2.183749   -2.206218
H     -2.187206   -2.303573   -0.508796
H     -1.340796    0.058468   -2.127458
H      0.620587    0.185392   -1.276055
H     -0.180978    1.264224    1.469487
H     -0.440754    2.148282   -0.054109
H      1.713792    2.837386   -0.073346
H      3.605417   -0.576124    1.620794
H      2.030409   -0.173298    2.295652
H      2.462457   -1.163699   -0.621900
H      2.312719   -2.293470    0.743404
H      4.829378    1.173972    0.977975
H      4.031236    2.781913    1.031810
H      5.153498    2.404333   -0.910047
H     -4.059549    0.506739    1.213534
H     -2.310589    0.386600    1.580476
H     -3.258612   -1.075927    1.102678
H     -2.303493    2.148343   -1.674202
H     -3.941003    2.135006   -0.951399
H     -2.555503    2.398974    0.108009
H     -4.049103   -1.159823   -1.067823
