19

C     -1.195978    0.820317    1.022920
C     -0.601478   -0.375849    0.264197
C     -1.728878   -1.298346   -0.217109
C      0.261884    0.072035   -0.940489
C      1.526870    0.857772   -0.557518
C      2.468123    0.037015    0.269348
O      2.556175    0.230853    1.510357
O      3.225726   -0.963276   -0.326517
H     -1.883353    0.466706    1.820945
H     -0.395338    1.407957    1.516925
H     -1.761996    1.481936    0.332616
H      0.026573   -0.961813    0.970118
H     -2.330022   -1.655417    0.646361
H     -1.305116   -2.188734   -0.728901
H     -2.398798   -0.762835   -0.924010
H     -0.352748    0.703059   -1.619669
H      0.573383   -0.823271   -1.523369
H      1.262190    1.796042   -0.026460
H      2.052781    1.155847   -1.489746
