14

C     -0.561553   -1.032204    0.777994
C     -0.145262    0.081971   -0.202456
C      1.266906   -0.198690   -0.730895
C     -0.152005    1.429938    0.484985
O      0.331934    1.561341    1.641233
O     -0.632130    2.551933   -0.180729
O     -1.027504    0.095616   -1.299739
H      0.167600   -1.121043    1.612273
H     -1.563441   -0.816406    1.207798
H     -0.611936   -2.008608    0.249884
H      2.003501   -0.224512    0.101489
H      1.294191   -1.176711   -1.258027
H      1.573049    0.591354   -1.450451
H     -1.943351    0.266020   -0.953357
