15

C     -0.178647   -0.662930    0.060098
C     -0.992245    0.640308    0.000211
N     -2.403590    0.371741   -0.267160
C      1.285514   -0.419763    0.444534
N      2.001576    0.263772   -0.629884
H     -0.630541   -1.336749    0.820351
H     -0.221654   -1.179613   -0.923645
H     -0.597772    1.298377   -0.803093
H     -0.905886    1.183680    0.966321
H     -2.782288   -0.237436    0.494248
H     -2.482565   -0.156458   -1.166673
H      1.348688    0.168077    1.387835
H      1.764542   -1.406935    0.627619
H      3.024825    0.191523   -0.426545
H      1.770043    1.282406   -0.584217
