45

C     -4.583933   -2.562228   -1.360444
C     -4.448801   -1.230124   -0.701002
N     -3.314673   -0.647368   -0.541786
N     -3.481183    0.588153    0.083715
C     -4.900032    0.838988    0.371938
C     -5.597733   -0.423872   -0.197887
C     -5.157530    0.967579    1.895730
F     -6.516098    1.084422    2.132628
F     -4.527422    2.082513    2.417135
F     -4.682200   -0.152624    2.556331
O     -5.360839    1.966266   -0.336958
C     -2.379072    1.487968    0.316838
O     -2.599988    2.688874    0.627086
C     -0.979718    1.034784    0.195465
N     -0.610298   -0.246820   -0.046630
N      0.711396   -0.262069   -0.073037
C      1.522061   -1.333869   -0.277263
C      2.913325   -1.110479   -0.227637
C      3.399301    0.202987    0.000265
N      2.511508    1.224555    0.194804
C      1.183856    0.967201    0.151849
C      0.145788    1.847912    0.333107
C      4.855161    0.491295    0.057488
C      5.328022    1.555444    0.848914
C      6.694831    1.844038    0.907791
C      7.604448    1.081261    0.172936
C      7.148675    0.030855   -0.626064
C      5.782988   -0.263354   -0.688353
C      0.941092   -2.709886   -0.486278
F      0.368547   -3.146732    0.693620
F      1.911798   -3.616585   -0.875526
F     -0.030562   -2.661012   -1.469375
H     -5.169823   -2.454268   -2.296758
H     -3.584211   -2.980520   -1.604814
H     -5.110305   -3.261992   -0.678563
H     -6.277865   -0.176570   -1.041923
H     -6.156146   -1.003621    0.568850
H     -5.012019    2.781130    0.104999
H      3.599829   -1.939211   -0.335159
H      0.193772    2.909372    0.538257
H      4.642117    2.156934    1.432525
H      7.048779    2.660104    1.524502
H      8.661955    1.307243    0.218747
H      7.853897   -0.552670   -1.203802
H      5.457306   -1.064004   -1.338877
