20

C      0.839569   -0.656484    0.918833
C      1.770434   -0.720362   -0.258782
O      1.665276   -1.653388   -1.099166
O      2.740546    0.262178   -0.430720
C     -0.395554    0.252947    0.689935
C     -1.270629   -0.248416   -0.495964
C     -1.864671   -1.603486   -0.244703
O     -2.906446   -1.719618    0.452983
O     -1.253488   -2.739371   -0.760361
C      0.073458    1.673366    0.433500
O      0.361172    2.425731    1.403651
O      0.249954    2.137492   -0.868172
O     -1.160487    0.231648    1.874357
H      1.412288   -0.282636    1.795862
H      0.509165   -1.685407    1.179524
H      3.369084    0.238281   -1.224696
H     -0.677136   -0.284401   -1.434558
H     -2.101707    0.469562   -0.673421
H      0.585865    3.076719   -1.044251
H     -1.946693    0.825646    1.743527
