45

C     -2.596504    2.457643   -0.681801
C     -2.574526    0.945779   -0.955383
C     -2.855163    0.127875    0.332139
C     -2.838531   -1.378434    0.011150
C     -1.723290   -1.741092   -1.006548
C     -0.726574   -0.582038   -1.226853
O     -1.356808    0.628878   -1.629562
O      0.027583   -0.378735   -0.043169
C      1.230790    0.328050   -0.302323
C      2.371913   -0.689882   -0.647917
O      3.370085   -0.763155    0.359314
C      2.777839   -1.015393    1.618263
C      2.052686    0.251725    2.131995
C      1.571950    1.150454    0.959497
O      2.511544    2.156335    0.661530
O      0.957330   -0.141600    2.919822
O      3.788965   -1.382586    2.518625
C      3.044725   -0.354429   -1.985625
O      3.691707    0.885905   -1.913313
O     -2.275481   -2.158498   -2.231764
O     -2.656472   -2.093913    1.206668
O     -4.110630    0.483278    0.854513
O     -1.517233    2.836189    0.130209
H     -3.567259    2.766919   -0.229777
H     -2.508165    2.995883   -1.649589
H     -3.408062    0.743550   -1.664166
H     -2.065339    0.359007    1.084578
H     -3.831307   -1.646661   -0.424333
H     -1.139647   -2.602808   -0.612684
H     -0.059147   -0.907947   -2.057756
H      1.093464    1.068505   -1.128016
H      1.931029   -1.705422   -0.782381
H      2.055097   -1.866654    1.537352
H      2.761752    0.841186    2.761674
H      0.647435    1.678449    1.279327
H      3.401883    1.733038    0.558591
H      0.705633    0.641382    3.476283
H      3.337509   -1.749891    3.323383
H      3.788112   -1.147357   -2.226104
H      2.281769   -0.336875   -2.796054
H      4.093462    1.039442   -2.807591
H     -2.776519   -1.393642   -2.616756
H     -2.945773   -3.027202    1.029401
H     -4.131884    0.164661    1.794669
H     -1.829946    2.780079    1.070484
