30

C      4.540832    0.177248   -0.524936
C      3.206972    0.712732   -0.117994
O      3.072694    1.946710    0.103219
N      2.099181   -0.182200    0.052420
C      0.757260    0.288190    0.416346
C     -0.088084   -0.861855    1.002810
C     -1.547194   -0.412680    1.175651
C     -2.072290    0.189182   -0.149335
O     -1.281269    1.300216   -0.538408
C      0.061648    0.934321   -0.811270
O      0.154973    0.168738   -1.991949
C     -3.521009    0.678332   -0.003729
O     -4.395637   -0.407805    0.133729
O     -2.333438   -1.517431    1.544608
O      0.426219   -1.238919    2.255092
H      4.423278   -0.492834   -1.402097
H      4.981141   -0.396265    0.316975
H      5.227646    1.006405   -0.798130
H      2.265024   -1.204239   -0.093436
H      0.849934    1.065859    1.208567
H     -0.074501   -1.738723    0.312860
H     -1.597050    0.375303    1.965569
H     -2.071824   -0.588016   -0.947019
H      0.604008    1.881369   -1.015174
H      0.043728   -0.788543   -1.764891
H     -3.800333    1.254456   -0.914587
H     -3.608541    1.354288    0.876894
H     -5.302952   -0.019476    0.238017
H     -2.216142   -1.642234    2.522517
H      1.195725   -1.842129    2.083914
