30

C      4.569876    0.285050    0.002094
C      3.203265   -0.271119   -0.232555
O      3.059185   -1.266473   -0.992971
N      2.061168    0.355759    0.368368
C      0.696247   -0.147176    0.162464
C     -0.272155    0.399914    1.234430
C     -1.708546   -0.141907    1.006303
C     -1.944492   -0.492627   -0.489453
O     -1.231118    0.407720   -1.316602
C      0.168068    0.155802   -1.277646
O      0.815425    1.287047   -1.804128
C     -3.432923   -0.419060   -0.845297
O     -3.615198   -0.783902   -2.185602
O     -1.895538   -1.292393    1.792291
O     -0.255982    1.808671    1.271511
H      4.710783    1.192497   -0.621771
H      5.344996   -0.465075   -0.264761
H      4.689950    0.553863    1.072724
H      2.225064    1.161530    1.013841
H      0.716186   -1.253313    0.295791
H      0.086663    0.049817    2.227894
H     -2.425503    0.649443    1.333554
H     -1.613044   -1.541327   -0.685507
H      0.376910   -0.729184   -1.927324
H      1.606947    0.967965   -2.311610
H     -4.009404   -1.112291   -0.192729
H     -3.806034    0.618273   -0.688001
H     -4.591864   -0.735017   -2.354286
H     -2.872608   -1.390838    1.936490
H     -0.656323    2.148351    0.430226
