22

C     -1.960263    0.884300    0.013942
C     -1.424551   -0.558970   -0.060363
C      0.018341   -0.660221   -0.625462
C      1.062396    0.240971    0.098176
C      2.483393    0.006045   -0.448679
O      3.396825    0.867253    0.176445
O      1.035782    0.028564    1.488190
O      0.015765   -0.427191   -2.013890
O     -1.467657   -1.148443    1.215081
O     -3.327624    0.880242    0.326796
H     -1.840550    1.386127   -0.967615
H     -1.394659    1.476035    0.769434
H     -2.082938   -1.134968   -0.754380
H      0.338514   -1.716573   -0.484520
H      0.810119    1.307103   -0.087905
H      2.787794   -1.056791   -0.307105
H      2.502800    0.217232   -1.538729
H      3.638045    0.448485    1.043596
H      1.286488   -0.918691    1.650585
H     -0.088333    0.547822   -2.162294
H     -2.392702   -1.481448    1.353833
H     -3.396986    0.813119    1.314865
