23

C      0.329873   -0.501905    1.350999
C      1.512293    0.000977    1.899327
C      2.412227    0.716885    1.103848
C      2.122807    0.934107   -0.253937
C      0.935411    0.428102   -0.803129
C      0.035942   -0.302644   -0.008804
C     -1.257502   -0.819414   -0.601831
C     -2.428391    0.086374   -0.181289
N     -3.678347   -0.306075   -0.830815
O     -1.496900   -2.135024   -0.171390
O      3.012804    1.652171   -1.051232
O      3.584738    1.205960    1.678811
H     -0.357578   -1.045624    1.987014
H      1.728946   -0.163474    2.947266
H      0.714837    0.606338   -1.848491
H     -1.191821   -0.807068   -1.715397
H     -2.564442    0.045202    0.921697
H     -2.201161    1.139934   -0.455978
H     -3.912886   -1.287709   -0.557081
H     -3.544178   -0.285540   -1.867969
H     -0.851490   -2.715275   -0.654142
H      2.827356    1.823137   -2.032693
H      4.267464    1.730565    1.145215
