11

C     -1.166703    0.029732   -0.542616
C      0.066239    0.248938    0.331262
C      1.000412   -0.925214    0.231858
O      1.538937   -1.204486   -0.828007
O      0.722341    1.420906   -0.074339
H     -1.862047    0.888774   -0.431864
H     -0.877831   -0.057539   -1.612211
H     -1.698176   -0.895547   -0.232410
H     -0.274134    0.351810    1.387592
H      1.207215   -1.526528    1.111161
H      1.343747    1.669153    0.659574
