26

C     -2.303094    2.256362   -0.733832
C     -1.893332    0.825218   -0.856550
O     -2.085726    0.213704   -1.942203
N     -1.317667    0.147792    0.269597
C     -0.814845   -1.229846    0.186079
C      0.476218   -1.322576   -0.661812
C      1.734647   -0.665885   -0.057459
C      1.692144    0.867399   -0.073281
N      3.011244    1.409053    0.238928
C     -0.626994   -1.841046    1.555105
O     -0.234070   -1.138568    2.524566
O     -0.830893   -3.204642    1.747946
H     -3.203523    2.329219   -0.089275
H     -1.478057    2.843031   -0.278178
H     -2.535345    2.682925   -1.732773
H     -1.291917    0.661217    1.179763
H     -1.591424   -1.838116   -0.328214
H      0.293441   -0.902246   -1.673789
H      0.701707   -2.401022   -0.815328
H      2.603622   -0.997562   -0.667281
H      1.912399   -1.028432    0.976676
H      0.975982    1.226843    0.693436
H      1.363055    1.235622   -1.071012
H      3.640379    1.230919   -0.577740
H      2.918315    2.447725    0.317883
H     -1.116267   -3.807089    0.985258
