15

C      0.630554   -0.858387    0.286339
C      1.639298   -0.972601   -0.820281
O      2.649403   -0.287080   -0.810745
C     -0.030613    0.532247    0.323021
C     -0.807876    0.786666   -0.943793
O     -0.383593    1.626685   -1.780485
O     -1.982010    0.088364   -1.215089
N     -0.927193    0.627073    1.475654
H      1.146908   -1.053009    1.251287
H     -0.145198   -1.643916    0.155725
H      1.477794   -1.677371   -1.629367
H      0.765228    1.306390    0.426112
H     -2.347750   -0.599054   -0.567341
H     -1.328619    1.593183    1.501832
H     -0.356336    0.530810    2.347129
