20

C     -1.379848    0.979194   -0.570541
C     -1.805271    0.322484    0.745108
C     -1.145152   -1.051935    0.893353
N      0.317955   -0.932347    0.824423
C      0.739910   -0.386108   -0.477025
C      0.146778    1.019017   -0.683698
C      2.238766   -0.310152   -0.532572
O      2.852604   -0.698320   -1.562465
O      2.950114    0.221483    0.539471
H     -1.782683    2.013882   -0.615901
H     -1.802184    0.407383   -1.426182
H     -1.509161    0.970346    1.599261
H     -2.910463    0.208009    0.761989
H     -1.518753   -1.743075    0.103690
H     -1.428638   -1.478992    1.879483
H      0.711338   -1.898952    0.916304
H      0.387085   -1.054644   -1.297384
H      0.550363    1.719084    0.081767
H      0.426926    1.403626   -1.688828
H      3.960316    0.290016    0.509747
