23

C      1.805835   -1.135374    0.586796
C      1.071202    0.163047    0.211813
C      0.326083    0.050872   -1.130990
C     -0.895240    0.912411   -0.906306
C     -1.071680    0.878782    0.613527
O      0.132775    0.466253    1.226379
C     -2.173431   -0.061442    1.010679
O     -3.336587    0.380267    1.210606
O     -1.923432   -1.426928    1.112985
O     -0.647067    2.230642   -1.325045
O     -0.071806   -1.272944   -1.392770
O      2.029256    1.193528    0.135255
O      2.536636   -0.946250    1.767627
H      1.070456   -1.956828    0.742587
H      2.498112   -1.421722   -0.237239
H      0.958527    0.429211   -1.969473
H     -1.791334    0.513527   -1.441110
H     -1.326260    1.894520    0.990574
H     -2.662266   -2.073294    1.362552
H     -0.729006    2.235237   -2.314601
H     -0.340762   -1.306067   -2.347959
H      1.547039    2.060974    0.143565
H      2.992952   -1.808424    1.950548
