28

C     -1.905271   -0.554808   -0.212631
C     -0.899763    0.585509   -0.381277
O      0.418169    0.048932   -0.430038
C      1.553265    0.850685   -0.579082
O      1.449479    2.105110   -0.662500
C      2.906397    0.214122   -0.590476
C      3.424408    0.037361    0.837511
C      4.778585   -0.604443    0.827712
O      4.883712   -1.852013    0.961882
O      5.923301    0.161704    0.628475
C     -3.369688   -0.071844   -0.297093
C     -4.297964   -1.256491   -0.289771
O     -4.568608   -1.841998    0.792530
O     -4.826795   -1.749892   -1.479543
N     -3.719512    0.831154    0.804220
H     -1.724845   -1.297965   -1.021069
H     -1.724093   -1.062823    0.760276
H     -0.974591    1.287058    0.477153
H     -1.108718    1.135342   -1.325063
H      2.835533   -0.776215   -1.090885
H      3.609959    0.848534   -1.173531
H      2.718475   -0.595689    1.419445
H      3.494184    1.026938    1.339501
H      5.865821    1.164600    0.497637
H     -3.512566    0.471782   -1.257798
H     -4.608493   -1.322110   -2.371364
H     -3.346027    0.455048    1.706485
H     -3.274354    1.762415    0.638144
