24

C     -2.994022    0.474614   -0.046243
C     -1.584382    0.084683    0.423480
C     -0.554507    0.305300   -0.710813
C      0.791982   -0.436298   -0.519625
C      1.581653    0.094250    0.695122
C      3.022807   -0.321594    0.637805
O      3.426797   -1.290625    1.333106
O      3.916009    0.337761   -0.201507
N      0.572178   -1.881137   -0.399554
N     -1.213510    0.857332    1.611884
H     -3.021013    1.539853   -0.361244
H     -3.303038   -0.161798   -0.902764
H     -3.725811    0.324858    0.775814
H     -1.610032   -0.994041    0.692390
H     -0.992351   -0.046784   -1.671304
H     -0.364064    1.393940   -0.838052
H      1.392903   -0.241382   -1.438436
H      1.543870    1.204881    0.717191
H      1.130487   -0.282232    1.638556
H      3.615431    1.113390   -0.779676
H      0.060558   -2.210576   -1.250492
H      1.499480   -2.363663   -0.424276
H     -1.317943    1.879093    1.411451
H     -1.873479    0.620175    2.388068
