16

C     -0.909724   -0.988545   -0.903498
C     -0.269946   -0.158958    0.216995
C      1.154712    0.292011   -0.153398
N      2.040238   -0.859517   -0.306693
C     -1.128802    1.034369    0.532423
O     -1.344164    1.915693   -0.343545
O     -1.690077    1.166190    1.798845
H     -0.322077   -1.913784   -1.082256
H     -1.940466   -1.287746   -0.615589
H     -0.956246   -0.406087   -1.848903
H     -0.212838   -0.795281    1.128026
H      1.133081    0.867105   -1.105937
H      1.555435    0.960928    0.642078
H      2.971203   -0.505136   -0.624821
H      2.191097   -1.284445    0.637234
H     -2.271426    1.963204    2.029040
