25

C     -2.566201   -1.380420   -0.078883
C     -1.374416   -1.911036   -0.371025
C     -0.141955   -1.096409   -0.267833
C     -0.247382    0.297411   -0.100393
C     -1.614264    0.951008   -0.121477
C     -2.680913    0.012190    0.487052
O     -2.521201   -0.058386    1.880074
O     -1.965913    1.254105   -1.446292
N      0.879171    1.062709   -0.018436
C      2.130646    0.514638   -0.062495
C      2.268501   -0.872482   -0.235054
C      1.132295   -1.677232   -0.340070
O      1.264840   -2.920993   -0.498797
C      3.323118    1.391048    0.035650
O      3.218887    2.615720   -0.238945
O      4.564633    0.903358    0.442471
H     -3.458803   -1.984994   -0.181119
H     -1.321915   -2.941290   -0.700726
H     -1.593267    1.889730    0.480060
H     -3.697672    0.402373    0.248041
H     -2.890432    0.783795    2.254744
H     -1.422594    2.041021   -1.714383
H      0.773956    2.097399    0.087243
H      3.244807   -1.331606   -0.318112
H      4.696074   -0.041658    0.778704
