23

C     -1.918423   -1.410426    0.740465
C     -2.945876   -0.596006    0.275643
C     -2.660182    0.599089   -0.382358
C     -1.325893    0.998670   -0.586018
C     -0.263399    0.163270   -0.135097
C     -0.576488   -1.046232    0.541355
C      0.469634   -1.869052    0.993910
O      0.230524   -2.949250    1.600223
C      1.791742   -1.493432    0.773905
C      2.077728   -0.299263    0.101646
N      1.052831    0.485780   -0.347722
C      3.490213    0.087799   -0.135286
O      4.385740   -0.797753   -0.169123
O      3.863067    1.420179   -0.305685
O     -1.109002    2.225960   -1.222792
O     -3.724051    1.386443   -0.824600
H     -2.177927   -2.330112    1.250703
H     -3.975262   -0.893537    0.431688
H      2.593048   -2.129413    1.132542
H      1.303734    1.326158   -0.904425
H      3.214011    2.186183   -0.179124
H     -0.210773    2.669991   -1.340841
H     -3.584994    2.264952   -1.309010
