35

C     -2.049650    0.070385   -1.515558
N     -2.500221    0.251086   -0.113053
C     -3.951080   -0.064310   -0.068725
C     -2.326942    1.667517    0.287962
C     -1.795356   -0.695468    0.815837
C     -0.380426   -0.296875    1.315557
C      0.716843   -0.326769    0.239055
C      2.126682   -0.479429    0.857266
C      3.233946   -0.619145   -0.219086
C      3.317869    0.598321   -1.109202
O      3.987031    1.603408   -0.749343
O      2.630972    0.637896   -2.319669
N      4.529806   -0.859374    0.420756
O      2.415846    0.568643    1.752077
H     -2.103891   -0.997668   -1.822956
H     -1.015895    0.425610   -1.673414
H     -2.683608    0.656652   -2.218569
H     -4.369413    0.104395    0.949376
H     -4.136907   -1.127297   -0.344079
H     -4.530841    0.575076   -0.772628
H     -1.281648    2.010345    0.131662
H     -2.975406    2.338694   -0.319224
H     -2.591295    1.811327    1.359389
H     -1.740461   -1.713362    0.366886
H     -2.399117   -0.823325    1.744462
H     -0.393085    0.689639    1.824231
H     -0.113314   -1.034787    2.104194
H      0.536622   -1.176085   -0.455754
H      0.685210    0.622301   -0.332264
H      2.126866   -1.425148    1.443113
H      2.990575   -1.500359   -0.855868
H      2.066734   -0.143864   -2.630438
H      5.242869   -1.018596   -0.328542
H      4.473824   -1.756243    0.956510
H      2.256861    1.426811    1.280041
