26

C      0.244449    1.312677    0.481807
C      1.450199    0.663842   -0.228091
C      1.473393   -0.863825   -0.000098
C      0.156151   -1.503530   -0.474816
C     -1.062600   -0.863777    0.229219
C     -1.084608    0.671608    0.012655
O     -2.145897    1.235360    0.742539
N     -2.295395   -1.484694   -0.265721
O      0.198062   -2.882926   -0.208199
O      1.682987   -1.158265    1.359521
O      2.638195    1.240931    0.250644
N      0.249642    2.757673    0.231643
H      0.351478    1.149952    1.578757
H      1.361462    0.860736   -1.323391
H      2.298865   -1.301917   -0.610070
H      0.071526   -1.336005   -1.575982
H     -0.985005   -1.068121    1.321602
H     -1.208425    0.883064   -1.077649
H     -2.931892    1.271599    0.137145
H     -2.481844   -1.164540   -1.244265
H     -3.097588   -1.176201    0.329830
H     -0.415749   -3.323188   -0.852486
H      2.657592   -1.072838    1.527834
H      3.353493    1.002139   -0.395328
H      0.007221    2.941145   -0.769600
H     -0.485713    3.209102    0.822499
