35

C      2.777382   -0.163468    0.243409
C      4.288881   -0.320410    0.012041
C      4.630109   -0.415888   -1.443134
O      5.035285   -1.506315   -1.927626
O      4.485261    0.698432   -2.263558
C      1.982181   -1.457165   -0.037446
C      0.585852   -1.364805    0.532994
O      0.208537   -2.224632    1.375148
N     -0.312049   -0.321772    0.119536
C     -1.684349   -0.230434    0.627776
C     -2.272014    1.163663    0.330996
C     -3.629602    1.379747    1.013311
C     -4.133597    2.762785    0.747385
O     -4.841567    2.992502   -0.269480
O     -3.783216    3.804029    1.601013
C     -2.523768   -1.312426    0.007153
O     -2.558388   -1.450704   -1.245490
O     -3.279272   -2.152673    0.818828
N      1.934345   -1.743694   -1.473453
H      2.632851    0.116779    1.310465
H      2.388492    0.677937   -0.370962
H      4.807678    0.568879    0.429800
H      4.669963   -1.211397    0.557603
H      4.704503    0.648136   -3.251218
H      2.505865   -2.300325    0.467340
H      0.018952    0.379729   -0.580956
H     -1.663487   -0.368176    1.732047
H     -2.378111    1.302675   -0.768303
H     -1.560485    1.933854    0.704144
H     -3.527153    1.237368    2.110845
H     -4.370963    0.642684    0.635792
H     -4.102832    4.749210    1.425804
H     -3.856123   -2.881975    0.417044
H      1.417259   -2.641329   -1.620159
H      1.403580   -0.990819   -1.968688
