43

C      2.398029   -4.136783    0.099874
O      1.613133   -2.950974    0.173071
C      2.130070   -1.647288    0.101785
C      1.229900   -0.570777    0.185529
C      1.718225    0.750786    0.129104
C      3.084754    0.994795   -0.026032
C      3.984754   -0.085333   -0.119551
C      3.508367   -1.399653   -0.053326
C      5.346965    0.192713   -0.274379
C      5.773017    1.519144   -0.331169
C      4.822495    2.540253   -0.230599
O      5.186011    3.744386   -0.278921
O      3.532956    2.247034   -0.083742
O     -0.135623   -0.871447    0.341467
C     -1.237106    0.028295    0.189996
C     -1.582843    0.178447   -1.309524
C     -2.848748    1.043256   -1.483500
C     -3.978040    0.520946   -0.579387
C     -3.451521    0.348611    0.865803
O     -2.341239   -0.533798    0.876302
C     -4.529907   -0.241900    1.790214
O     -5.586273    0.660255    1.983518
O     -5.047481    1.432078   -0.593770
O     -3.271887    1.009139   -2.822270
O     -0.504080    0.716341   -2.032750
H      1.730508   -5.018686    0.183422
H      3.128402   -4.163621    0.935955
H      2.928661   -4.184022   -0.874495
H      1.058402    1.600431    0.212438
H      4.210160   -2.220670   -0.122731
H      6.073938   -0.607031   -0.350078
H      6.824493    1.749573   -0.450745
H     -0.985858    1.011340    0.644819
H     -1.792497   -0.835729   -1.716581
H     -2.624530    2.095126   -1.182673
H     -4.316231   -0.475114   -0.954289
H     -3.160954    1.341849    1.283283
H     -4.933059   -1.179201    1.350393
H     -4.076784   -0.506450    2.773149
H     -5.254167    1.358263    2.606563
H     -5.563726    1.258028   -1.423709
H     -2.688657    1.636187   -3.324519
H     -0.372032    1.651201   -1.726302
