47

C      2.887652   -0.308157   -1.717136
C      3.893344   -0.755599   -0.641178
C      3.547143   -0.110923    0.719102
C      2.095775   -0.443871    1.132066
C      1.091595    0.003049    0.050013
C      1.441065   -0.644835   -1.305101
N      0.495448   -0.198832   -2.331262
O     -0.209432   -0.420837    0.432088
C     -1.028777    0.671188    0.815023
C     -2.219946    0.170823    1.655344
C     -3.126134   -0.771335    0.832907
C     -3.030544   -0.498247   -0.689770
C     -2.598246    0.959359   -1.001679
O     -1.425913    1.418564   -0.328961
C     -3.750727    1.956704   -0.784517
O     -3.373527    3.239812   -1.206724
O     -2.112184   -1.381570   -1.283354
O     -4.453745   -0.619053    1.268442
N     -1.738241   -0.514381    2.857957
O      1.786594    0.208429    2.337633
O      4.433838   -0.594649    1.696618
N      5.247966   -0.374056   -1.049146
H      2.988132    0.787170   -1.887340
H      3.121387   -0.825352   -2.673443
H      3.842091   -1.865125   -0.542826
H      3.654497    0.996815    0.620880
H      1.999140   -1.549392    1.262607
H      1.179877    1.111388   -0.076491
H      1.348755   -1.750474   -1.204518
H      0.700384   -0.707618   -3.221871
H      0.633195    0.822260   -2.513886
H     -0.463372    1.365121    1.480064
H     -2.803860    1.065175    1.971695
H     -2.804166   -1.823924    1.022981
H     -4.027747   -0.672016   -1.160748
H     -2.372056    0.991018   -2.090603
H     -4.073001    1.979200    0.279148
H     -4.629230    1.641810   -1.387189
H     -2.857185    3.645707   -0.462197
H     -2.557407   -2.267212   -1.343971
H     -4.949531   -1.427211    0.973089
H     -1.196679    0.169078    3.435982
H     -2.567572   -0.784607    3.435690
H      2.091560   -0.381464    3.075610
H      4.500315    0.102602    2.400281
H      5.928731   -0.778582   -0.366036
H      5.460736   -0.835950   -1.963454
