34

C      4.673798    0.669914   -0.964464
C      4.225666    0.075428    0.332022
O      5.056268   -0.112234    1.260826
C      2.833658   -0.346183    0.500037
C      1.772846   -0.010019   -0.310738
N      1.783780    0.946151   -1.385297
C      2.699698    2.050368   -1.443633
N      3.976971    1.922746   -1.233171
N      0.673249   -0.658562    0.125551
C      1.100768   -1.369953    1.197997
N      2.417183   -1.202431    1.452201
C     -0.681379   -0.546492   -0.443195
C     -1.712408   -1.472807    0.193972
C     -3.001322   -0.750594   -0.108406
C     -2.554527    0.718319   -0.140696
O     -1.150344    0.774527   -0.300767
C     -2.934631    1.469669    1.142933
O     -4.325507    1.644393    1.216231
O     -3.500051   -1.114751   -1.372575
O     -1.686242   -2.756244   -0.374948
H      5.765443    0.872053   -0.928585
H      4.488555   -0.049473   -1.791408
H      0.924403    1.035862   -1.970092
H      2.318628    3.023959   -1.721682
H      0.478671   -2.016826    1.798728
H     -0.623068   -0.778397   -1.531632
H     -1.607821   -1.522168    1.300895
H     -3.763858   -0.950225    0.681189
H     -3.026785    1.245132   -1.000095
H     -2.539645    0.935391    2.039239
H     -2.462105    2.474865    1.123210
H     -4.677119    0.944095    1.825181
H     -4.050577   -1.930406   -1.240517
H     -0.892198   -3.215109    0.003322
