35

C      5.852168   -0.980337    0.834468
O      4.494448   -1.355373    1.042717
C      3.393583   -0.681023    0.493893
C      2.110827   -1.158708    0.780556
C      0.981417   -0.522539    0.258823
C      1.115890    0.616611   -0.557214
C      2.406451    1.088042   -0.853385
C      3.535195    0.450111   -0.330767
C     -0.094695    1.307631   -1.159617
C     -0.680354    0.486853   -2.319101
O     -1.475154   -0.590248   -1.832016
C     -2.423334   -0.399211   -0.823005
C     -3.424434   -1.356127   -0.644186
C     -4.397498   -1.180666    0.342441
C     -4.378003   -0.034176    1.137798
C     -3.387764    0.941940    0.969613
C     -2.356418    0.737123    0.011876
C     -1.142806    1.597828   -0.108856
O     -0.908429    2.515918    0.720231
O     -3.489620    2.092958    1.754188
O     -5.395994   -2.133308    0.532983
H      6.100839   -1.031316   -0.246640
H      6.510891   -1.683507    1.384001
H      6.028053    0.046351    1.219458
H      1.988490   -2.030627    1.410685
H      0.005057   -0.920733    0.497601
H      2.542329    1.951951   -1.492171
H      4.512381    0.842777   -0.576495
H      0.220468    2.287805   -1.583098
H     -1.322264    1.145587   -2.944104
H      0.127593    0.087740   -2.969189
H     -3.446856   -2.233757   -1.278022
H     -5.151931    0.110693    1.881560
H     -3.010388    2.958224    1.553662
H     -5.440138   -2.974489   -0.030398
