19

C     -2.075041    0.550186    1.218519
C     -1.950441   -0.253778   -0.075423
C     -0.551003   -0.858258   -0.267367
C      0.512068    0.203652   -0.585486
C      1.863792   -0.448879   -0.890356
C      2.892861    0.593742   -1.193741
O      3.583362    1.091439   -0.265850
O      3.055608    1.052167   -2.494889
H     -1.451375    1.466778    1.173944
H     -3.132167    0.859111    1.359987
H     -1.767739   -0.065584    2.090384
H     -2.211108    0.391852   -0.942093
H     -2.689153   -1.083751   -0.041302
H     -0.602701   -1.579230   -1.112638
H     -0.258483   -1.426738    0.642796
H      0.630672    0.886084    0.283530
H      0.186634    0.801413   -1.465632
H      1.767187   -1.126486   -1.766258
H      2.197028   -1.053720   -0.018599
