49

C      4.413369   -2.137299    0.322474
C      3.158445   -1.868742    1.159396
C      3.466480   -2.058811    2.623385
O      4.267815   -1.277763    3.203976
O      2.904989   -3.109699    3.341924
N      2.659608   -0.510911    0.911719
C      2.001279   -0.146681   -0.309752
O      1.823770   -1.003425   -1.216712
C      1.598084    1.283509   -0.548866
C      2.734970    2.002103   -1.272681
O      0.437875    1.350492   -1.360135
C     -0.768833    1.276965   -0.609141
C     -1.354003   -0.161952   -0.674197
C     -2.887187   -0.141632   -0.892890
O     -3.463080    0.842007   -0.062545
C     -3.148027    2.163563   -0.497688
C     -1.754055    2.299150   -1.196811
O     -1.243146    3.594504   -1.010986
C     -4.276080    2.710552   -1.388780
O     -5.526920    2.510842   -0.787329
O     -3.452496   -1.388533   -0.573016
N     -1.038563   -0.878756    0.571126
C     -0.654170   -2.261546    0.599983
O     -0.444850   -2.891481   -0.472519
C     -0.522286   -2.967968    1.905669
H      4.811697   -3.149795    0.545569
H      5.197911   -1.382413    0.543272
H      4.175492   -2.094146   -0.761185
H      2.375262   -2.600207    0.863420
H      2.287112   -3.783662    2.904364
H      2.814503    0.236101    1.628896
H      1.476061    1.811491    0.426200
H      3.660346    1.974725   -0.657726
H      2.936678    1.521064   -2.253800
H      2.457805    3.063787   -1.443977
H     -0.646103    1.576560    0.461674
H     -0.901364   -0.693698   -1.542113
H     -3.114915    0.070058   -1.967174
H     -3.113196    2.793259    0.419108
H     -1.854191    2.087379   -2.288075
H     -1.698801    4.177527   -1.671976
H     -4.121862    3.794742   -1.582162
H     -4.272210    2.187643   -2.369414
H     -5.543377    3.069661    0.033712
H     -3.104401   -2.035801   -1.242868
H     -1.284488   -0.417671    1.478426
H     -1.530165   -3.116834    2.350358
H      0.098629   -2.361448    2.597909
H     -0.039411   -3.956813    1.761960
