49

C      6.410579    1.939204   -1.362929
C      5.967278    0.490597   -1.158043
C      4.928043    0.337945   -0.036204
C      3.536929    0.847500   -0.449404
C      2.508597    0.773642    0.693906
C      2.212446   -0.646537    1.218403
C      1.694163   -1.624951    0.152891
C      0.425931   -1.140984   -0.478143
O      0.427578   -0.769376   -1.683441
O     -0.741523   -1.077043    0.291867
C     -2.008479   -0.643836   -0.212235
C     -2.624525   -1.777010   -1.061659
C     -2.987460   -2.985856   -0.250746
O     -4.189584   -3.345061   -0.148510
O     -1.995265   -3.724159    0.382203
C     -2.863807   -0.181897    1.009075
N     -4.130405    0.586588    0.746886
C     -5.274853   -0.323244    0.494418
C     -4.450906    1.366669    1.970539
C     -3.998499    1.541322   -0.379184
H      6.768341    2.375849   -0.406333
H      7.243688    1.968706   -2.096441
H      5.579194    2.554983   -1.762919
H      6.863629   -0.109715   -0.889507
H      5.565371    0.084160   -2.111630
H      5.275454    0.870190    0.876332
H      4.859777   -0.743424    0.206525
H      3.612034    1.912771   -0.751980
H      3.171037    0.284784   -1.333776
H      2.871978    1.392751    1.542914
H      1.559960    1.237535    0.346795
H      3.123809   -1.071666    1.688706
H      1.453317   -0.566612    2.027263
H      2.470892   -1.805922   -0.620102
H      1.489362   -2.602604    0.639049
H     -1.820271    0.228467   -0.872341
H     -1.885994   -2.096468   -1.826480
H     -3.490865   -1.408921   -1.642547
H     -2.170349    0.453974    1.608202
H     -3.068281   -1.057614    1.665126
H     -5.362811   -1.093835    1.292275
H     -5.195801   -0.834758   -0.480079
H     -6.235370    0.239263    0.463214
H     -4.542871    0.698578    2.856867
H     -3.658837    2.118484    2.188445
H     -5.410032    1.922730    1.863630
H     -3.912596    1.012937   -1.353022
H     -3.106306    2.192753   -0.244338
H     -4.893699    2.199111   -0.454941
