24

C      2.741465    0.589602    1.034439
C      1.437011    0.728433    0.253484
C      0.639596   -0.588679    0.270659
C     -0.598255   -0.620415   -0.680040
C     -1.792697    0.201556   -0.124417
C     -1.604494    1.689261   -0.180585
O     -1.492373    2.275589   -1.290506
O     -1.590788    2.429272    0.997958
C     -1.072732   -2.056031   -0.802870
O     -1.417070   -2.521048   -1.923502
O     -1.189646   -2.852135    0.334204
O     -0.252939   -0.134404   -1.958553
H      3.390281   -0.183304    0.570014
H      3.284784    1.558071    1.026707
H      2.532018    0.308210    2.088561
H      0.849317    1.540208    0.723355
H      1.681858    1.022972   -0.789040
H      1.331831   -1.407387   -0.031067
H      0.319395   -0.802967    1.314491
H     -2.708396   -0.032418   -0.711926
H     -2.000287   -0.099414    0.926090
H     -1.473357    3.435216    0.978289
H     -1.525170   -3.805670    0.269036
H      0.510647   -0.674521   -2.294781
