28

C     -0.652883   -1.333614    0.043022
C      0.080802   -0.263015    0.567660
C     -0.564538    0.950187    0.829915
C     -1.938880    1.098998    0.596713
C     -2.688687   -0.004460    0.121702
C     -2.035098   -1.219435   -0.188991
N     -2.764012   -2.345687   -0.720357
O     -2.252503   -3.484862   -0.723242
O     -4.000677   -2.180941   -1.300581
O     -4.078253    0.072776   -0.003055
N     -2.548698    2.378951    0.826541
O     -3.335105    2.859929   -0.015062
O     -2.085823    3.187163    1.839370
C      1.567889   -0.391305    0.784316
C      2.359266    0.146302   -0.420863
C      3.839266    0.131433   -0.123086
O      4.450138   -0.964142   -0.005434
O      4.540878    1.321647    0.049599
N      2.061805   -0.635061   -1.624845
H     -0.140546   -2.258867   -0.190683
H      0.012656    1.791805    1.193836
H     -4.625593    0.849335    0.343379
H      1.852040    0.178162    1.697185
H      1.836718   -1.454543    0.972843
H      2.044458    1.197831   -0.603121
H      4.081625    2.221452   -0.023186
H      2.388708   -1.620648   -1.495141
H      2.595048   -0.229390   -2.428431
