10

C     -0.065450   -0.243148   -0.300735
C     -0.952918    0.962384   -0.271808
O     -1.756542    1.140530    0.681974
O     -0.860709    1.916138   -1.277788
C      1.096870   -0.035184    0.624334
O      0.957742   -0.185014    1.867422
O      2.324890    0.367944    0.115141
O     -0.798528   -1.377530    0.081583
H      0.312572   -0.377347   -1.340558
H     -0.257928   -2.168772   -0.179566
