19

C     -1.165111   -1.491983    0.332816
C     -0.984358   -0.025725   -0.072758
C     -2.235025    0.792412    0.263167
C      0.232066    0.564225    0.606553
O      0.283512    0.610651    1.827708
C      1.391760    1.086321   -0.195483
C      2.524047    0.112528   -0.147337
O      3.444349    0.254093    0.701727
O      2.537868   -0.975764   -1.014083
H     -1.346001   -1.580982    1.425808
H     -0.255427   -2.073883    0.070724
H     -2.028113   -1.934477   -0.209081
H     -0.847285    0.002477   -1.176060
H     -3.115196    0.384021   -0.277915
H     -2.443165    0.766769    1.354652
H     -2.094023    1.848837   -0.051030
H      1.098489    1.245366   -1.254825
H      1.712754    2.069963    0.210887
H      3.288859   -1.654849   -0.983245
