18

C      0.239690    0.461044    1.008872
C     -1.262141    0.288507    1.092064
C     -1.667239   -0.193538   -0.298148
N     -0.482373   -0.772428   -0.939003
C      0.650607   -0.577256   -0.026777
C      1.868476   -0.146003   -0.789161
O      1.775509    0.718366   -1.702379
O      3.112613   -0.673557   -0.458274
O     -1.922185    1.472278    1.469846
H      0.725458    0.273229    1.991336
H      0.493565    1.488645    0.662854
H     -1.494932   -0.506671    1.834924
H     -2.489998   -0.940129   -0.224766
H     -2.023921    0.652695   -0.923798
H     -0.635263   -1.800161   -1.073292
H      0.875461   -1.533964    0.500938
H      3.947980   -0.383337   -0.952363
H     -1.711307    2.172282    0.797770
