20

C     -3.466653   -0.889325   -0.638015
N     -2.166396   -0.499479   -0.107806
C     -1.389317    0.545109   -0.706616
O     -1.812090    1.144081   -1.732679
C     -0.046732    0.900954   -0.143486
C      1.026850   -0.049328   -0.678550
C      2.374047    0.303047   -0.113985
O      3.131558    1.068687   -0.768312
C      2.804248   -0.195530    1.207136
O      2.041053   -0.935181    1.882896
O      4.051886    0.141932    1.727089
H     -3.891666   -1.713230   -0.026800
H     -4.161067   -0.023494   -0.606455
H     -3.356281   -1.239690   -1.685854
H     -1.792757   -1.000543    0.729718
H     -0.088792    0.840886    0.965834
H      0.206270    1.948136   -0.420727
H      1.064473    0.019022   -1.788317
H      0.772263   -1.099346   -0.415295
H      4.699101    0.733293    1.219920
