38

C     -4.197102   -0.915851    1.641907
N     -4.216793    0.356015    0.909838
C     -5.421331    1.193616    0.950545
C     -3.081739    0.809610    0.131829
N     -3.173836    1.965587   -0.598439
C     -2.129948    2.443397   -1.346709
N     -0.943928    1.770079   -1.389034
C     -0.840407    0.623285   -0.677381
C     -1.855698    0.130070    0.075420
N     -1.455625   -0.993625    0.703085
C     -0.169280   -1.143167    0.287122
N      0.231646   -0.171238   -0.571065
C      1.566796    0.041208   -1.132084
C      2.431562    0.843213   -0.173046
C      3.814544    0.317820   -0.468951
C      3.527308   -1.115324   -0.923771
O      2.192514   -1.198724   -1.382651
C      3.734979   -2.122809    0.214348
O      3.451824   -3.416022   -0.243123
O      4.408934    1.031734   -1.525171
O      2.312937    2.220487   -0.419445
H     -5.169508   -1.123857    2.135112
H     -3.420111   -0.882413    2.433856
H     -3.993030   -1.751714    0.940077
H     -5.827015    1.316820   -0.075935
H     -5.168779    2.191703    1.367358
H     -6.217039    0.749056    1.584379
H     -2.246452    3.361274   -1.906146
H      0.470352   -1.948766    0.623382
H      1.477913    0.579419   -2.103099
H      2.157854    0.607696    0.883166
H      4.462583    0.352644    0.439392
H      4.210748   -1.392941   -1.757147
H      3.064575   -1.871845    1.067211
H      4.791931   -2.076840    0.561273
H      3.594494   -4.019417    0.531658
H      4.857136    1.820800   -1.122324
H      2.766992    2.679451    0.334562
