49

C      1.717051    1.448009   -1.484499
C      1.656869    0.579359   -0.198172
C      2.569376    1.224026    0.900400
C      4.065034    1.164562    0.587813
C      4.447881   -0.247730    0.290416
O      5.384480   -0.775319    0.870672
C      3.699257   -0.982513   -0.774882
C      2.166327   -0.870211   -0.579632
C      1.646283   -1.922903    0.413884
C      0.113038   -2.050682    0.339270
C     -0.601970   -0.750010   -0.120670
C      0.175528    0.511228    0.387073
C     -0.632313    1.853704    0.260764
C     -2.110541    1.752697    0.709729
C     -2.794395    0.556513    0.021228
C     -2.035943   -0.705589    0.441075
C     -3.001852   -1.863036    0.180876
C     -4.366851   -1.279590    0.587258
C     -4.158720    0.203003    0.513182
O     -5.029310    1.021515    0.766032
C     -2.906784    0.771237   -1.514229
H      2.701620    1.369165   -1.987504
H      0.944249    1.119322   -2.212077
H      1.566793    2.524277   -1.255890
H      2.419901    0.706960    1.873901
H      2.283865    2.286534    1.058877
H      4.306768    1.808038   -0.284085
H      4.638676    1.543770    1.461802
H      4.014911   -2.048605   -0.802555
H      3.982721   -0.548108   -1.756816
H      1.730877   -1.148875   -1.567421
H      1.951084   -1.644119    1.445968
H      2.090919   -2.918750    0.196761
H     -0.246026   -2.367011    1.343540
H     -0.151091   -2.865173   -0.370684
H     -0.630400   -0.748051   -1.230593
H      0.254609    0.352345    1.487362
H     -0.631598    2.229744   -0.779340
H     -0.135673    2.633809    0.876330
H     -2.641231    2.695452    0.453011
H     -2.151666    1.640792    1.816060
H     -1.923111   -0.686874    1.555212
H     -2.996368   -2.142773   -0.894929
H     -2.748961   -2.754365    0.794982
H     -5.165926   -1.604009   -0.112843
H     -4.622027   -1.569788    1.629168
H     -3.510733    1.680425   -1.722730
H     -1.925413    0.904265   -2.007536
H     -3.409214   -0.086666   -2.009487
