18

C      0.572631    0.831087    0.846788
C      1.786854    0.798622    0.154024
C      2.003196   -0.158196   -0.842987
C      0.996472   -1.084365   -1.148058
C     -0.218646   -1.054025   -0.456852
C     -0.435163   -0.102372    0.553326
C     -1.753853   -0.050164    1.275627
C     -2.741079    0.772932    0.506099
O     -2.576391    1.975717    0.376693
O      3.217774   -0.178820   -1.524775
H      0.417580    1.583524    1.610161
H      2.559250    1.519578    0.389990
H      1.153295   -1.825162   -1.921742
H     -0.990769   -1.770555   -0.708754
H     -1.627835    0.379204    2.293276
H     -2.154937   -1.079346    1.399841
H     -3.613228    0.301037    0.065447
H      3.404849   -0.858694   -2.252554
