37

C     -0.952288   -0.272409   -0.419832
C     -2.472113   -0.587140   -0.458226
C     -3.301131    0.459867    0.335555
C     -2.737069    0.672397    1.721874
O     -3.355487    1.342526    2.535184
C     -1.412279    0.066341    2.101726
C     -0.420670    0.273706    0.938141
N      0.887740   -0.317766    1.259282
C      2.095092   -0.088681    0.504022
C      3.223575   -0.880707    0.765541
C      4.411410   -0.688396    0.055041
C      4.498579    0.307377   -0.933015
C      3.372846    1.106832   -1.190706
C      2.184536    0.914277   -0.479775
N      5.719618    0.509320   -1.668020
O      6.723693   -0.197596   -1.441776
O      5.800783    1.485634   -2.634536
O     -1.571712   -1.301894    2.375935
O     -4.650723    0.074428    0.423242
C     -2.944384   -0.701234   -1.921878
O     -4.225493   -1.270998   -1.989219
H     -0.715506    0.475758   -1.207860
H     -0.404899   -1.202675   -0.690557
H     -2.617185   -1.583971    0.016004
H     -3.254151    1.434402   -0.197173
H     -1.006453    0.585107    3.002431
H     -0.292626    1.375679    0.846924
H      0.952730   -0.962687    2.080153
H      3.181686   -1.655836    1.520554
H      5.261769   -1.319579    0.279171
H      3.410525    1.885640   -1.941371
H      1.349512    1.561559   -0.701852
H     -2.024190   -1.365222    3.257523
H     -4.686000   -0.784523    0.921362
H     -2.250355   -1.366429   -2.479493
H     -2.913994    0.297162   -2.419594
H     -4.865384   -0.532753   -2.164783
