21

C     -3.183538   -1.662131   -0.539436
C     -2.957052   -1.492006    0.827822
C     -1.803943   -0.837566    1.271883
C     -0.858115   -0.352093    0.349139
C     -1.103904   -0.519282   -1.027405
C     -2.259582   -1.173779   -1.465607
C      0.358178    0.345342    0.832741
O      0.347080    0.888457    1.971730
N      1.552374    0.397989    0.036279
C      2.697462    1.212062    0.441959
C      3.800357    1.111645   -0.563847
O      3.825196    1.886901   -1.555577
O      4.771059    0.126526   -0.435171
H     -4.077451   -2.167582   -0.881386
H     -3.675545   -1.867542    1.544983
H     -1.646546   -0.720776    2.337031
H     -0.422080   -0.125644   -1.769060
H     -2.442072   -1.296307   -2.525476
H      1.626178   -0.199097   -0.818235
H      3.069646    0.864430    1.429523
H      2.382297    2.273714    0.538111
