25

C     -0.525865    1.299671    0.030638
C      0.413330    0.463155   -0.582273
C      0.063456   -0.857874   -0.886632
C     -1.226995   -1.345388   -0.618435
C     -2.184803   -0.479824   -0.037533
C     -1.817940    0.838397    0.322436
N     -2.733897    1.706137    1.008748
O     -2.720210    2.934241    0.784575
O     -3.458735    1.234770    2.078953
O     -3.497254   -0.928268    0.132726
N     -1.551978   -2.709324   -0.960290
O     -2.570176   -3.265294   -0.499559
O     -0.703467   -3.447814   -1.753428
C      1.808210    0.962846   -0.848694
C      2.648059    0.852321    0.392090
O      2.703170    1.832447    1.182418
C      3.370646   -0.391901    0.722461
O      3.313391   -1.382346   -0.053093
O      4.123999   -0.492021    1.890053
H     -0.240960    2.308303    0.305629
H      0.803961   -1.508824   -1.333825
H     -4.261699   -0.320148    0.394561
H      1.769185    2.024582   -1.177360
H      2.276902    0.394530   -1.681348
H      4.199672    0.277627    2.544056
