20

C     -0.304691   -0.115668    0.375577
C     -1.550095    0.023165   -0.519731
C     -2.774439   -0.381883    0.252013
O     -3.211428    0.349620    1.181391
O     -3.412154   -1.582905   -0.042783
N     -1.697308    1.403701   -0.987356
N      0.933053    0.001162   -0.398160
C      2.217204   -0.031683    0.242342
O      2.292034   -0.157360    1.494752
C      3.455709    0.080559   -0.550787
O      3.394896    0.209419   -1.801808
O      4.705256    0.046779    0.064579
H     -0.314687   -1.109592    0.875503
H     -0.324878    0.670646    1.162380
H     -1.446751   -0.656167   -1.396612
H     -4.232636   -1.875909    0.474073
H     -0.882986    1.642649   -1.597624
H     -2.539556    1.452766   -1.606531
H      0.889459    0.085978   -1.438897
H      4.803997   -0.055276    1.067409
