32

C     -3.750047    0.218139   -1.990499
C     -3.209482   -0.305597   -0.700139
O     -3.495573   -1.478002   -0.334894
N     -2.386988    0.533321    0.122902
C     -1.761293    0.046711    1.359465
C     -0.546958   -0.853794    1.052302
C      0.526602   -0.165533    0.192131
C      1.685168   -1.127922   -0.113480
C      2.753425   -0.486871   -1.021871
C      3.442291    0.650965   -0.318869
O      4.213873    0.425056    0.652311
O      3.207448    1.960016   -0.727780
N      3.743134   -1.491808   -1.413534
C     -1.388242    1.186011    2.273248
O     -0.909922    2.256922    1.810244
O     -1.529505    1.034030    3.649209
H     -2.917780    0.613134   -2.609772
H     -4.265647   -0.587791   -2.554886
H     -4.472455    1.035102   -1.784658
H     -2.191972    1.504169   -0.212298
H     -2.507000   -0.568407    1.910376
H     -0.905373   -1.763661    0.523387
H     -0.092311   -1.189130    2.010823
H      0.920563    0.719680    0.733934
H      0.076636    0.175160   -0.765519
H      2.154014   -1.466093    0.837339
H      1.272539   -2.025335   -0.625201
H      2.258049   -0.095767   -1.940141
H      3.654193    2.738762   -0.258673
H      3.260493   -2.228892   -1.977763
H      4.430810   -1.041840   -2.061558
H     -1.268691    1.779267    4.283863
