21

C     -2.712537   -0.456169    0.419232
C     -1.249567   -0.613092   -0.031282
C     -0.497825    0.735062   -0.019685
C      0.888777    0.583245   -0.609420
O      1.042065    0.835317   -1.835182
C      2.045254    0.108933    0.196119
O      1.875886   -0.178150    1.411506
C      3.400345   -0.040200   -0.382270
O      3.619473    0.248381   -1.588215
O      4.459047   -0.501351    0.397841
O     -0.435008    1.247119    1.287469
O     -0.598885   -1.526163    0.815309
O     -3.434042    0.324873   -0.496676
H     -3.185659   -1.460373    0.459837
H     -2.764191   -0.028143    1.447687
H     -1.247355   -1.004131   -1.076997
H     -1.062348    1.451841   -0.660978
H      4.338497   -0.747998    1.372718
H     -0.168062    2.200484    1.209287
H     -0.884246   -2.434885    0.534597
H     -3.429617    1.255398   -0.151117
