22

C      3.309471   -0.219751    0.286948
N      1.846206   -0.230014    0.156018
C      1.194879   -1.423046    0.037758
C     -0.188025   -1.468441   -0.101574
C     -0.931503   -0.279410   -0.124380
C     -0.257057    0.957193   -0.017239
C      1.152166    0.952460    0.118910
O      1.780407    2.045616    0.192785
C     -1.012894    2.241392   -0.047282
O     -2.167392    2.295733   -0.550580
O     -0.454078    3.403498    0.478833
O     -2.332515   -0.298554   -0.238717
C     -3.123260   -1.477888   -0.349518
H      3.608709    0.391639    1.165192
H      3.719181   -1.242601    0.434528
H      3.763941    0.210665   -0.630605
H      1.743800   -2.357417    0.051539
H     -0.667381   -2.434047   -0.185575
H     -0.961584    4.280105    0.460710
H     -4.192016   -1.191137   -0.425937
H     -2.989902   -2.113403    0.551307
H     -2.841156   -2.042591   -1.263123
