21

C     -3.232013   -0.618809    0.210578
C     -1.740435   -0.585172    0.064979
N     -1.059165   -1.759095    0.088947
C      0.289004   -1.818551   -0.037165
C      1.043235   -0.649519   -0.210173
C      0.370380    0.600212   -0.206301
C     -1.035330    0.627507   -0.076210
O     -1.702839    1.857059   -0.065909
C      1.113148    1.881081   -0.260684
O      0.686858    2.833768   -0.967578
O      2.270070    2.051983    0.494782
C      2.499958   -0.787146   -0.449897
O      3.114843    0.040235   -1.175135
O      3.192319   -1.870323    0.085261
H     -3.534560   -0.075227    1.130189
H     -3.592915   -1.666484    0.289351
H     -3.709974   -0.152169   -0.676298
H      0.768460   -2.789186   -0.033613
H     -2.706231    1.942637    0.033203
H      2.781215    2.926269    0.472611
H      4.183972   -1.989071   -0.084366
