24

C     -1.776992    0.991104   -1.754128
C     -0.529770    1.090597   -1.134893
N     -0.357635    0.668509    0.154795
C     -1.403967    0.132478    0.854376
C     -2.668948    0.015351    0.270143
C     -2.853704    0.451771   -1.049375
O     -3.981300    0.359990   -1.604088
O     -3.716268   -0.533125    1.010544
C      0.967545    0.757178    0.785216
C      1.707053   -0.595576    0.714321
C      1.956634   -1.015863   -0.710800
O      1.419054   -2.064581   -1.154710
O      2.767453   -0.260276   -1.554926
N      2.976692   -0.542097    1.441766
H     -1.901690    1.329573   -2.775454
H      0.300326    1.504485   -1.695075
H     -1.261804   -0.210821    1.872726
H     -4.648306   -0.637635    0.627578
H      1.576258    1.556575    0.306866
H      0.850788    1.055247    1.851049
H      1.066423   -1.366026    1.200354
H      3.210709    0.594376   -1.241905
H      3.529475    0.288403    1.126949
H      2.771973   -0.406266    2.458672
