47

C      1.512943    4.202790   -0.607799
C      1.863305    2.751657   -0.652773
O      2.207606    2.230720   -1.747982
N      1.752561    1.951498    0.533182
C      1.886425    0.491683    0.517335
C      0.495774   -0.163810    0.443311
C      0.639978   -1.689384    0.603728
C      1.477754   -2.020549    1.866299
O      2.751371   -1.401009    1.785943
C      2.621725    0.011791    1.787911
O      3.897097    0.594413    1.853702
C      1.679232   -3.536907    2.000656
O      2.381782   -3.834273    3.177527
O     -0.626358   -2.299957    0.652788
O     -0.083549    0.108249   -0.823671
C     -1.197802    0.974306   -0.714042
C     -1.591933    1.481123   -2.113367
C     -2.234737    0.358996   -2.969145
C     -3.169197   -0.526867   -2.177324
C     -3.164721   -0.550099   -0.833919
O     -2.296455    0.282809   -0.115265
C     -4.087181   -1.425993   -0.079947
O     -4.888335   -2.187673   -0.685019
O     -4.084718   -1.424337    1.312940
O     -1.249902   -0.411847   -3.612371
O     -2.459591    2.584110   -2.008033
H      1.914983    4.660586    0.320205
H      0.408732    4.314671   -0.623013
H      1.944423    4.733339   -1.482991
H      1.402029    2.408604    1.405908
H      2.483407    0.170834   -0.366288
H     -0.112437    0.210426    1.305208
H      1.175941   -2.085929   -0.287695
H      0.935809   -1.676049    2.778732
H      2.063607    0.345331    2.693446
H      4.437025    0.201846    1.118330
H      2.219375   -3.937846    1.111797
H      0.692228   -4.043427    2.053025
H      3.344477   -3.693578    2.980451
H     -1.085787   -1.974306    1.470543
H     -0.944063    1.862607   -0.090847
H     -0.673333    1.839089   -2.628306
H     -2.837523    0.843648   -3.767322
H     -3.827531   -1.182367   -2.734636
H     -3.461159   -0.830104    1.845608
H     -0.821291   -0.994777   -2.933458
H     -3.291989    2.275963   -1.563363
