47

C      3.030399   -1.093764    2.594997
C      3.538584   -1.049581    1.176294
C      2.928640   -0.233832    0.186530
C      3.442021   -0.242661   -1.130409
C      4.566629   -1.023369   -1.445503
C      5.175173   -1.800622   -0.456766
C      4.667391   -1.813704    0.840410
O      5.075525   -1.023695   -2.743597
O      2.824679    0.527189   -2.119518
C      1.700749    0.600335    0.495778
C      0.417680   -0.183760    0.174179
C     -0.869414    0.612504    0.517024
C     -2.046510    0.140043   -0.356394
C     -2.009449    0.423312   -1.863367
C     -3.463865    0.221853   -2.313279
C     -4.252493    0.381069   -1.054064
O     -5.471208    0.310944   -1.010103
C     -3.392413    0.699526    0.123287
C     -3.750294   -0.038228    1.421084
C     -2.652148    0.144659    2.500825
C     -1.239428    0.451089    1.998297
O     -0.376458    0.634272    2.842999
C     -3.422600    2.237455    0.327075
H      1.940172   -1.298357    2.609399
H      3.526197   -1.895406    3.182855
H      3.232725   -0.123484    3.094792
H      6.044152   -2.401114   -0.694486
H      5.158363   -2.427888    1.585359
H      5.885138   -1.578035   -2.996984
H      3.156485    0.548495   -3.076202
H      1.711535    0.931541    1.551873
H      1.718987    1.535594   -0.104876
H      0.414440   -1.156648    0.713315
H      0.443107   -0.420560   -0.910189
H     -0.690276    1.690983    0.312958
H     -2.074113   -0.975350   -0.270239
H     -1.334250   -0.276120   -2.401209
H     -1.685003    1.469263   -2.055507
H     -3.611050   -0.802120   -2.719241
H     -3.759367    0.983698   -3.065864
H     -3.876304   -1.124732    1.213834
H     -4.725129    0.326559    1.813128
H     -2.958445    0.980551    3.166657
H     -2.615205   -0.770905    3.129585
H     -3.089467    2.771422   -0.588104
H     -2.775900    2.563382    1.166529
H     -4.457982    2.568198    0.558782
