21

C     -0.849489   -0.620111   -0.769004
C     -0.106380    0.590007   -0.155330
C      1.427723    0.528739   -0.379973
C      2.051550   -0.695666    0.231337
O      2.525030   -0.646346    1.398325
O      2.085010   -1.892711   -0.478636
O      1.722331    0.552920   -1.753132
C     -0.424859    0.763316    1.313426
O     -0.449702   -0.233608    2.083645
O     -0.645317    2.032258    1.842016
C     -2.336754   -0.409479   -0.767898
O     -2.869679    0.296726   -1.663913
O     -3.133183   -0.958452    0.233130
H     -0.607197   -1.552259   -0.215032
H     -0.521577   -0.768452   -1.820564
H     -0.469657    1.499623   -0.684457
H      1.892410    1.422964    0.100324
H      2.491388   -2.726722   -0.072062
H      1.558791    1.480532   -2.067637
H     -0.606517    2.860083    1.259687
H     -2.733923   -1.523361    0.972902
