46

C      1.583080   -2.635425   -0.718436
N      0.878507   -1.566900    0.011521
C      1.786379   -0.797284    0.879653
C      2.431102    0.321050    0.091331
C      1.704309    1.215529   -0.765575
C      0.217812    1.062407   -1.062472
C     -0.649588    1.117947    0.168141
O     -0.232929    1.726578    1.192026
C     -2.065065    0.682752    0.137494
C     -3.030016    1.685177    0.393197
C     -4.371459    1.334358    0.402008
C     -4.780743    0.066400    0.182309
C     -3.884878   -0.964560   -0.061533
C     -2.495864   -0.678277   -0.075244
C     -1.555197   -1.844081   -0.353116
C     -0.389646   -1.984575    0.661918
O     -0.295998   -3.286106    1.199099
O     -6.159780    0.008346    0.246299
C     -6.645440    1.328376    0.525740
O     -5.469826    2.144364    0.617664
C      2.404070    2.268489   -1.416040
C      3.780821    2.455102   -1.221240
C      4.441970    1.578046   -0.375610
C      3.800850    0.562211    0.253745
O      4.710949   -0.131727    1.031696
C      5.996382    0.482988    0.877208
O      5.779493    1.570896   -0.029660
H      0.895230   -3.132899   -1.434364
H      1.999155   -3.391670   -0.017630
H      2.417210   -2.202544   -1.311151
H      1.260403   -0.328998    1.736708
H      2.550180   -1.469086    1.332365
H     -0.127342    1.880989   -1.729911
H      0.052357    0.133116   -1.637013
H     -2.742156    2.714260    0.571606
H     -4.262426   -1.964921   -0.232242
H     -1.175801   -1.752489   -1.391639
H     -2.137473   -2.791505   -0.352506
H     -0.627638   -1.325759    1.524548
H     -0.371738   -3.942086    0.458428
H     -7.293498    1.681867   -0.303463
H     -7.195277    1.338317    1.490154
H      1.882469    2.948152   -2.078291
H      4.311191    3.258839   -1.714804
H      6.358491    0.864946    1.854659
H      6.717369   -0.240607    0.442424
