43

C     -0.496610   -2.008037   -0.760513
N     -0.682160   -0.594922   -1.157076
C      0.110439   -0.261480   -2.356161
C      1.621611   -0.387387   -2.107030
C      2.044713    0.119026   -0.748493
C      3.417635    0.218831   -0.476845
C      3.873909    0.646302    0.781371
C      2.942484    0.975764    1.770364
C      1.570246    0.870929    1.511960
C      1.100637    0.412136    0.264574
C     -0.391792    0.376415   -0.070900
C     -1.328133    0.166586    1.151232
C     -2.784068    0.051313    0.758161
C     -3.431858    1.116118    0.107136
C     -4.780906    1.014161   -0.245037
C     -5.502605   -0.146757    0.061263
C     -4.869665   -1.201105    0.726217
C     -3.520730   -1.101886    1.079924
O     -6.846793   -0.260300   -0.286173
O      3.390660    1.413926    3.015847
O      5.240105    0.758762    1.084419
C      6.295303    0.458202    0.176742
H     -0.554440   -2.675116   -1.647556
H     -1.308827   -2.325588   -0.079844
H      0.476320   -2.174384   -0.251245
H     -0.183572   -0.918839   -3.203583
H     -0.122145    0.778098   -2.677860
H      1.916844   -1.455489   -2.193180
H      2.162045    0.174033   -2.900003
H      4.124387   -0.040009   -1.254376
H      0.886032    1.156065    2.296203
H     -0.627507    1.394390   -0.453961
H     -1.256237    1.039567    1.833057
H     -0.999368   -0.726579    1.726153
H     -2.895398    2.027085   -0.125157
H     -5.265051    1.839211   -0.751849
H     -5.424867   -2.097235    0.972708
H     -3.053665   -1.925297    1.605459
H     -7.334114    0.486582   -0.767393
H      2.744903    1.662148    3.756328
H      7.267708    0.635233    0.680144
H      6.231553    1.117270   -0.714766
H      6.242977   -0.607744   -0.130260
