43

C     -0.835802   -2.315022    1.063974
N     -0.811484   -1.358197   -0.056497
C      0.060453   -1.812722   -1.159220
C      1.541732   -1.823136   -0.769248
C      1.948686   -0.574752   -0.035723
C      3.315347   -0.300018    0.125659
C      3.744085    0.812179    0.873915
C      2.784727    1.643919    1.474513
C      1.423855    1.364972    1.326089
C      0.991449    0.258716    0.577315
C     -0.499046    0.019560    0.400248
C     -1.099056    1.062986   -0.566599
C     -2.584167    0.867337   -0.735419
C     -3.089059    0.167191   -1.843565
C     -4.464890   -0.041993   -1.977967
C     -5.348372    0.438986   -1.006268
C     -4.849389    1.131216    0.105450
C     -3.473995    1.341432    0.242282
O     -6.716632    0.222842   -1.153100
O      3.164886    2.756152    2.225659
O      5.104761    1.114972    1.043239
C      6.176390    0.357481    0.490539
H      0.118686   -2.298292    1.633355
H     -1.666902   -2.059919    1.755361
H     -1.023148   -3.345886    0.694001
H     -0.078319   -1.155388   -2.042869
H     -0.240988   -2.831116   -1.488685
H      1.749935   -2.702426   -0.122812
H      2.151105   -1.932809   -1.692811
H      4.038442   -0.963635   -0.329910
H      0.698197    2.018369    1.795458
H     -0.984955    0.194595    1.388809
H     -0.919546    2.085645   -0.168004
H     -0.588787    1.023047   -1.552761
H     -2.418894   -0.218362   -2.601516
H     -4.844743   -0.580899   -2.836632
H     -5.525421    1.503437    0.864628
H     -3.101379    1.870730    1.110644
H     -7.382206    0.558017   -0.466402
H      4.136108    3.006692    2.366697
H      7.138784    0.826418    0.780721
H      6.105705    0.347976   -0.617676
H      6.153849   -0.680294    0.885129
