41

C     -0.205456    2.185423   -1.229207
N      0.055434    1.337003   -0.063616
C      1.275336    1.570368    0.713591
C      2.284601    0.507268    0.372221
C      1.858659   -0.796580   -0.011183
C      0.385843   -1.084544    0.018188
C     -0.506865    0.012601    0.002219
C     -1.901921   -0.197767    0.119724
C     -2.814687    0.883416    0.213077
C     -4.170890    0.593965    0.315623
C     -4.637070   -0.677665    0.347317
C     -3.788329   -1.776040    0.292097
C     -2.400487   -1.536732    0.191609
C     -1.504920   -2.609869    0.209153
C     -0.129936   -2.386186    0.158962
O     -6.014237   -0.661544    0.456541
C     -6.439342    0.707600    0.496414
O     -5.231205    1.475196    0.406173
C      2.840938   -1.741113   -0.449637
C      4.213197   -1.419424   -0.380359
C      4.573713   -0.156698    0.068970
C      3.652657    0.769801    0.422590
O      4.295761    1.934887    0.798213
C      5.708431    1.722289    0.676815
O      5.841712    0.374527    0.206380
O      2.467133   -2.969415   -0.991219
H     -0.299617    3.244415   -0.909412
H     -1.138935    1.884910   -1.749250
H      0.633968    2.094840   -1.950744
H      1.687212    2.581188    0.497832
H      1.038457    1.518719    1.797670
H     -2.493567    1.915629    0.224527
H     -4.191625   -2.780026    0.344100
H     -1.868235   -3.626470    0.305081
H      0.516631   -3.241232    0.278487
H     -7.099459    0.929117   -0.368275
H     -6.957695    0.920166    1.454860
H      4.971769   -2.125593   -0.692326
H      6.140496    2.430374   -0.061006
H      6.198971    1.832993    1.666556
H      3.153562   -3.639795   -1.317322
