18

C     -2.164322   -0.017942    0.286577
C     -0.937191   -0.304978   -0.597096
C      0.278892    0.563363   -0.206296
C      1.489909    0.245013   -1.043044
O      1.566552    0.368121   -2.294078
C      2.563493   -0.198584   -0.182812
O      3.722707   -0.546205   -0.529781
C      2.031040   -0.156960    1.153244
O      2.653625   -0.470732    2.200977
O      0.711892    0.280338    1.132912
O     -0.616466   -1.674698   -0.559163
O     -2.626155    1.291398    0.084185
H     -1.929714   -0.199163    1.361426
H     -2.978848   -0.718641    0.004783
H     -1.213250   -0.055256   -1.645175
H      0.042776    1.644777   -0.302747
H     -0.428333   -1.915680    0.385486
H     -2.166607    1.865830    0.750602
