26

C      0.289149   -1.406700   -1.147325
C     -0.074084   -1.463678   -2.496339
C     -1.423263   -1.435204   -2.863817
C     -2.411735   -1.346016   -1.874320
C     -2.051192   -1.288523   -0.524618
C     -0.697916   -1.329092   -0.150814
C     -0.309255   -1.230267    1.298404
C     -0.204562    0.207551    1.705654
O     -1.188316    0.769447    2.259729
N      0.988955    0.950247    1.425610
C      1.104091    2.365779    1.770887
C      2.448750    2.897031    1.376923
O      2.585731    3.518877    0.290742
O      3.561095    2.670409    2.181800
O     -1.770493   -1.492972   -4.211585
H      1.338594   -1.421464   -0.880204
H      0.693489   -1.526629   -3.257212
H     -3.458174   -1.317112   -2.150157
H     -2.825311   -1.209658    0.228590
H      0.663415   -1.738606    1.475004
H     -1.063058   -1.747753    1.931465
H      1.784435    0.460683    0.955108
H      0.968833    2.492797    2.866289
H      0.307211    2.940253    1.250660
H      3.482235    2.154036    3.049710
H     -2.738622   -1.473435   -4.510183
