20

C      2.777158   -1.323820    0.809840
C      1.369931   -1.026142    0.390568
N      0.494516   -2.051695    0.235618
C     -0.795995   -1.851674   -0.128176
C     -1.278239   -0.555243   -0.369584
C     -0.392874    0.540200   -0.207856
C      0.944031    0.295953    0.187966
O      1.853307    1.335953    0.409544
C     -0.855141    1.924316   -0.438757
O     -0.256902    2.661721   -1.267448
O     -1.955509    2.416544    0.256968
C     -2.676152   -0.375376   -0.831749
O     -3.478083   -1.346640   -0.865527
H      2.945132   -2.420472    0.865091
H      3.489516   -0.894616    0.074060
H      2.971406   -0.883512    1.810412
H     -1.440439   -2.713374   -0.244841
H      1.602480    2.314806    0.366737
H     -2.284950    3.362471    0.106066
H     -3.033194    0.590601   -1.158932
