31

C      2.382548    1.342620   -0.615620
C      3.750952    1.575491   -0.783215
C      4.630434    0.503827   -0.962683
C      4.135856   -0.806784   -0.968536
C      2.767728   -1.042794   -0.802151
C      1.874896    0.032750   -0.640990
C      0.425258   -0.190638   -0.438547
O     -0.205676    0.552715    0.469313
C     -1.501998    0.429725    0.736783
C     -2.088668    1.245966    1.708709
C     -3.453079    1.123467    2.002057
C     -4.231321    0.181983    1.320336
C     -3.657021   -0.642893    0.341776
C     -2.285886   -0.520127    0.047037
C     -1.661328   -1.310536   -0.924291
C     -0.297695   -1.144259   -1.183939
O      0.319661   -1.893040   -2.185629
O     -4.444736   -1.576872   -0.332004
O     -4.045467    1.932287    2.969320
O      5.991270    0.750681   -1.129016
H      1.717412    2.186506   -0.477994
H      4.128402    2.590127   -0.771910
H      4.811472   -1.643510   -1.092870
H      2.414712   -2.065485   -0.773864
H     -1.484240    1.973831    2.235795
H     -5.285311    0.092671    1.552061
H     -2.225323   -2.042990   -1.488847
H     -0.193379   -2.574508   -2.732580
H     -5.433152   -1.679724   -0.133750
H     -3.510524    2.624027    3.481411
H      6.654202   -0.004514   -1.259755
