19

C     -1.990923    1.080577    0.020355
C     -1.890920   -0.250485    0.096066
C     -0.599279   -0.934954   -0.287417
C      0.626853   -0.072987    0.150689
C      0.416256    1.356009   -0.307561
C     -0.808007    1.898992   -0.308278
C      1.926186   -0.586506   -0.446279
O      1.919711   -1.331149   -1.463015
O      3.150630   -0.193745    0.089634
O      0.718695   -0.056003    1.556907
O     -0.536897   -2.212334    0.293446
H     -2.940131    1.564206    0.211568
H     -2.760030   -0.839854    0.361270
H     -0.596310   -1.026445   -1.399563
H      1.268759    1.984313   -0.538993
H     -0.933868    2.947708   -0.544722
H      3.203369    0.434834    0.882102
H      0.973929   -0.966168    1.861936
H     -1.148024   -2.796007   -0.228143
