27

C     -3.538951    1.067070   -0.512883
C     -3.268680   -0.437423   -0.579475
N     -1.838758   -0.699307   -0.742482
C     -0.977304   -1.021197    0.359066
O     -1.457440   -1.235886    1.505152
C      0.508524   -1.049193    0.165643
C      1.078379    0.376440    0.245646
C      2.620480    0.454663    0.155178
C      3.286104   -0.250255    1.307047
O      3.673220   -1.445151    1.195547
O      3.433096    0.411583    2.522156
N      3.133708   -0.030304   -1.130548
C     -2.949451    1.661893    0.693231
N     -2.483518    2.130466    1.643274
H     -4.635299    1.242231   -0.495333
H     -3.117622    1.567999   -1.410317
H     -3.668165   -0.943622    0.326553
H     -3.808862   -0.857853   -1.454655
H     -1.409451   -0.506486   -1.675718
H      0.727203   -1.499100   -0.825043
H      0.964757   -1.692524    0.947971
H      0.640200    0.988842   -0.573223
H      0.759286    0.840989    1.205599
H      2.895021    1.529695    0.235779
H      3.861945   -0.048800    3.316072
H      2.657622    0.489966   -1.903075
H      2.913955   -1.044734   -1.251231
