16

C      2.124020   -0.291157   -0.109708
N      0.685911   -0.143869   -0.048665
C     -0.123800   -1.102914   -0.290972
C     -1.548696   -0.709120   -0.164673
C     -1.468898    0.769995    0.226862
C      0.029116    1.089761    0.288922
H      2.625244    0.669122    0.137633
H      2.429588   -0.596239   -1.133352
H      2.456308   -1.061456    0.618659
H      0.204739   -2.102773   -0.561478
H     -2.069955   -0.841079   -1.136825
H     -2.043028   -1.309810    0.628429
H     -1.945918    0.937901    1.217224
H     -1.972656    1.403378   -0.535773
H      0.322443    1.410299    1.312462
H      0.295582    1.877960   -0.448748
