22

C     -2.953176   -0.847756   -0.347730
C     -1.690397    0.019942   -0.342929
C     -1.948384    1.333641    0.400970
N     -0.578455   -0.703169    0.283769
C      0.794366   -0.328471    0.090354
N      1.116912    0.703205   -0.733565
C      2.413003    1.055199   -0.918221
O      2.698294    2.013732   -1.683216
N      3.398864    0.373858   -0.278604
C      3.083933   -0.660293    0.545095
O      3.997595   -1.293811    1.138657
N      1.783408   -1.011393    0.728702
H     -3.782376   -0.316594   -0.862130
H     -3.267876   -1.088009    0.690682
H     -2.756344   -1.796503   -0.890916
H     -1.434016    0.246565   -1.401528
H     -2.198097    1.133922    1.465132
H     -2.790222    1.883605   -0.071251
H     -1.048314    1.982078    0.362865
H     -0.783278   -1.536926    0.880941
H      4.398982    0.644567   -0.420314
H      1.545577   -1.807390    1.363239
