47

C      1.189004    1.856261   -1.250847
C      0.015317    2.815566   -1.134978
N     -0.465696    2.780552    0.260639
C     -1.944054    2.620794    0.332914
C     -2.360485    1.158922    0.306491
C     -3.327762    0.742278   -0.534139
C     -3.711130   -0.704650   -0.675791
O     -2.632898   -1.449885   -1.215533
C     -1.808415   -1.991110   -0.194539
C     -0.940803   -3.137648   -0.794442
C      0.405144   -2.701944   -1.345510
O      1.085022   -3.510322   -2.031334
N      0.931803   -1.401240   -1.036224
C      0.029891   -0.325710   -0.649303
C     -0.897287   -0.912316    0.435503
C     -1.618885    0.193106    1.222566
C     -0.528077    0.954595    1.989446
C      0.320464    1.733343    0.966284
C      0.947998    0.842684   -0.138162
C      2.216622    0.106196    0.179781
C      3.356018    0.560154    0.851151
C      4.460236   -0.299585    0.955606
C      4.418881   -1.582701    0.378897
C      3.275720   -2.013353   -0.312697
C      2.187908   -1.139603   -0.413674
H      2.132293    2.419015   -1.066510
H      1.246366    1.390973   -2.260124
H      0.333685    3.847945   -1.393226
H     -0.768672    2.501152   -1.861945
H     -2.300017    3.063351    1.287144
H     -2.444835    3.211560   -0.467309
H     -3.837152    1.463581   -1.167293
H     -4.101420   -1.100957    0.289306
H     -4.555888   -0.766997   -1.393190
H     -2.424583   -2.463092    0.606956
H     -1.512731   -3.662028   -1.590343
H     -0.739433   -3.882751    0.005613
H     -0.568679   -0.007759   -1.532253
H     -0.267809   -1.464615    1.174461
H     -2.326454   -0.257522    1.952533
H     -0.987045    1.657161    2.718967
H      0.117821    0.266327    2.578329
H      1.130536    2.248042    1.526843
H      3.395607    1.554024    1.276023
H      5.350123    0.028167    1.477032
H      5.274359   -2.239819    0.466179
H      3.249392   -3.000142   -0.752852
