27

C     -4.320971    0.572995   -0.570916
C     -2.936125    0.037682   -0.735425
O     -2.245058    0.393603   -1.728160
N     -2.418056   -0.908782    0.209346
C     -1.070096   -1.464780    0.108858
C     -0.029212   -0.429846    0.547916
C      1.391573   -1.005244    0.457312
C      2.457062   -0.064240    1.046660
C      2.594968    1.288291    0.322164
N      2.957302    1.130245   -1.087682
H     -5.055449   -0.210579   -0.850394
H     -4.473962    1.462535   -1.218313
H     -4.486130    0.868906    0.486192
H     -3.044571   -1.256691    0.970105
H     -0.998230   -2.357441    0.768137
H     -0.876085   -1.794038   -0.935415
H     -0.110576    0.463153   -0.106135
H     -0.242444   -0.123388    1.595455
H      1.636472   -1.251068   -0.597890
H      1.430572   -1.957293    1.030876
H      2.218984    0.127863    2.115567
H      3.439347   -0.584347    1.022237
H      1.655021    1.874571    0.408603
H      3.388958    1.874323    0.835980
H      2.142702    0.767010   -1.632461
H      3.772684    0.482616   -1.185503
H      3.221321    2.063944   -1.477232
