25

C     -0.887876   -1.818681    0.347725
C      0.525312   -1.338103    0.237518
C      0.600699    0.010851   -0.081764
C     -0.771434    0.521959   -0.120564
C     -1.268706    1.829876   -0.205733
C     -2.657642    2.027333   -0.150626
C     -3.526410    0.936293    0.026676
C     -3.011871   -0.359458    0.173594
C     -1.630093   -0.543742    0.106526
C      1.850008    0.628975   -0.298743
C      3.018985   -0.129808   -0.067299
C      2.924207   -1.484009    0.301617
C      1.674516   -2.100583    0.435396
O      4.284285    0.436740   -0.219619
O      1.973092    1.932560   -0.776284
H     -1.094597   -2.212086    1.365627
H     -1.116765   -2.566974   -0.440245
H     -0.624949    2.690838   -0.264962
H     -3.061598    3.028894   -0.222752
H     -4.594824    1.100790    0.078797
H     -3.673314   -1.197053    0.353642
H      3.824382   -2.062481    0.466052
H      1.603778   -3.147953    0.699227
H      4.413029    1.405895   -0.484366
H      1.227786    2.409926   -1.259442
