39

C      4.924867    1.292535    0.312403
C      5.846207    0.535496   -0.631175
C      4.736353   -0.199995    0.099783
N      3.585481   -0.520982   -0.738820
C      2.248674   -0.471356   -0.224372
C      1.153797   -0.812145   -1.011036
C     -0.094867   -0.748017   -0.496633
N     -0.341289   -0.353832    0.775626
C      0.724404   -0.016046    1.562866
N      2.001112   -0.076716    1.062299
N      0.507636    0.404702    2.907254
N     -0.986513   -1.104683   -1.432784
C     -0.219298   -1.370915   -2.521393
N      1.113909   -1.204409   -2.298327
C     -2.451308   -1.129517   -1.357762
C     -3.038824    0.284241   -1.205280
C     -3.945083    0.234373    0.040353
C     -3.714603   -1.126201    0.607757
C     -2.915764   -1.860722   -0.146378
C     -3.603103    1.333424    1.059242
O     -4.457032    1.262635    2.169461
H      5.392671    1.561602    1.282775
H      4.189607    1.948325   -0.201790
H      6.862232    0.354199   -0.221776
H      5.661395    0.745470   -1.706534
H      4.999231   -0.869868    0.945681
H      3.752989   -0.884509   -1.704368
H     -0.460690    0.457043    3.294513
H      1.314800    0.665976    3.515810
H     -0.623649   -1.676773   -3.477683
H     -2.874532   -1.626996   -2.258542
H     -3.637016    0.549176   -2.104482
H     -2.232666    1.044190   -1.098002
H     -5.011068    0.322932   -0.265152
H     -4.178141   -1.495365    1.517114
H     -2.652331   -2.887746    0.084854
H     -3.687741    2.334396    0.577739
H     -2.555493    1.216803    1.410137
H     -5.334352    1.623584    1.876620
