25

C      2.509205    0.202301    0.694334
C      1.137260    0.020292    0.030662
C      0.282775    1.309768    0.159367
C     -1.220038    0.977773    0.334955
C     -1.619996   -0.297002   -0.442711
C     -0.634158   -1.475749   -0.159304
O      0.471332   -1.072456    0.636255
O     -1.324194   -2.491761    0.518069
N     -1.712494   -0.005971   -1.877308
O     -1.485590    0.791885    1.703547
O      0.475879    2.104787   -0.983583
O      3.322123   -0.914707    0.452914
H      2.393412    0.369454    1.790308
H      3.010205    1.096340    0.264907
H      1.334463   -0.194403   -1.047551
H      0.611328    1.886136    1.058144
H     -1.826449    1.839204   -0.034115
H     -2.641969   -0.583241   -0.103192
H     -0.259770   -1.902884   -1.120982
H     -0.701401   -3.262300    0.583637
H     -0.756547    0.135466   -2.275652
H     -2.126183   -0.837915   -2.358080
H     -2.465515    0.896104    1.826268
H      0.180550    3.023886   -0.750935
H      3.045773   -1.615008    1.100047
