19

C     -2.394865    0.464176   -1.109416
C     -1.584701    0.418101    0.161616
C     -2.226958    0.518054    1.340501
O     -1.591144    0.410677    2.580067
C     -0.111397    0.241990    0.092962
C      0.489857   -0.402209   -0.917135
C      1.956045   -0.558068   -1.021448
O      2.461288   -0.665759   -2.170190
C      2.850585   -0.635560    0.149627
O      2.389348   -0.833595    1.305537
O      4.226682   -0.532914   -0.031238
H     -3.336255    1.038915   -0.972450
H     -1.818350    0.962998   -1.916991
H     -2.648416   -0.569282   -1.425689
H     -3.298581    0.675610    1.350882
H     -0.615293    0.170482    2.693203
H      0.494717    0.688047    0.868327
H     -0.103526   -0.793349   -1.734171
H      4.860965   -0.598313    0.756005
