48

C      0.681984   -0.596067   -5.041919
O     -0.304463    0.025264   -4.223947
C     -0.317765   -0.012445   -2.819787
C     -1.351767    0.656801   -2.150319
C     -1.388055    0.641628   -0.736332
C     -0.392224   -0.032406   -0.004251
C     -0.443699    0.053537    1.475499
C     -1.500594    0.582292    2.096198
C     -2.726226    1.021598    1.324890
O     -2.393130    1.316235   -0.033439
C     -3.914434    0.028636    1.329383
C     -4.182528   -0.759728    2.604487
C     -3.611760   -1.463983    1.378587
C      0.640042   -0.718327   -0.684544
C      0.666671   -0.696275   -2.086565
C      1.739895   -1.455590    0.054777
C      2.774995   -0.533910    0.679715
C      3.067869    0.720282    0.110178
N      3.984529    1.539890    0.682844
C      4.655526    1.166576    1.800002
N      4.431725   -0.055105    2.345733
C      3.529594   -0.921658    1.812854
N      3.395497   -2.216238    2.410878
N      5.609613    2.047696    2.387980
O     -2.310395    1.310708   -2.947446
C     -3.460908    2.007929   -2.482134
H      0.682619   -1.693645   -4.873021
H      0.443595   -0.401640   -6.107522
H      1.684448   -0.173150   -4.819448
H      0.383044   -0.290111    2.081518
H     -1.501019    0.648814    3.176839
H     -3.092218    1.960784    1.790005
H     -4.828170    0.299754    0.757883
H     -5.252502   -0.992655    2.788281
H     -3.458071   -0.652093    3.437062
H     -2.553545   -1.774928    1.495286
H     -4.350786   -2.101990    0.849642
H      1.466522   -1.209301   -2.603501
H      1.247213   -2.079513    0.828077
H      2.267454   -2.159900   -0.624270
H      2.565230    1.058250   -0.785667
H      2.887798   -3.001344    1.949538
H      3.908671   -2.430830    3.294646
H      6.133113    1.763545    3.245541
H      5.794184    2.984932    1.965990
H     -3.157548    2.881264   -1.867666
H     -4.031164    2.382918   -3.356755
H     -4.118861    1.323499   -1.905781
