40

C     -0.436658    2.313852   -0.924381
N     -1.322387    1.490361   -0.080817
C     -2.722637    1.963611   -0.184487
C     -3.648505    0.755582   -0.293806
C     -2.716095   -0.378590   -0.423194
C     -3.083901   -1.662661   -0.295889
C     -2.079252   -2.765386   -0.019943
C     -0.597306   -2.291916    0.026649
C     -0.449897   -0.806076    0.456626
C     -1.305012    0.071498   -0.486240
C      1.012909   -0.413692    0.400160
C      1.536821    0.522469    1.318970
C      2.866768    0.903954    1.174642
C      3.657252    0.406015    0.190531
C      3.190548   -0.522262   -0.734853
C      1.847644   -0.943756   -0.624643
C      1.276676   -1.953652   -1.536319
O      1.891118   -2.314421   -2.574802
O      0.021904   -2.498378   -1.247661
O      4.917892    0.962804    0.287243
C      4.918692    1.868082    1.399913
O      3.590526    1.800013    1.937304
O     -2.418661   -3.408384    1.182682
H     -0.459167    3.368205   -0.574771
H      0.612039    1.963510   -0.854339
H     -0.746741    2.279792   -1.992884
H     -2.888193    2.619464   -1.070852
H     -2.973232    2.553053    0.723475
H     -4.260465    0.648317    0.628572
H     -4.305648    0.822966   -1.187689
H     -4.140608   -1.909052   -0.239701
H     -2.184462   -3.517034   -0.831409
H     -0.049307   -2.920592    0.765222
H     -0.821117   -0.699293    1.501619
H     -0.961785   -0.051977   -1.540410
H      0.923839    0.951318    2.101330
H      3.848447   -0.908540   -1.502710
H      5.657153    1.539220    2.160852
H      5.139535    2.899689    1.054191
H     -2.338727   -2.738115    1.911817
