45

C      1.822240   -2.944492   -0.469073
C      2.931227   -2.085959   -0.454194
C      2.713110   -0.712852   -0.569678
C      1.436093   -0.206002   -0.710730
C      0.309616   -1.033081   -0.724927
C      0.519436   -2.427266   -0.603482
O     -0.961724   -0.451774   -0.864984
C     -2.211639   -1.144773   -0.791595
C     -2.541027   -1.588226    0.651643
C     -2.881994   -0.380357    1.538339
C     -3.906760    0.545711    0.857034
C     -3.576160    0.812782   -0.638743
O     -3.252155   -0.367352   -1.366726
C     -2.545945    1.943413   -0.853645
O     -3.110244    3.190557   -0.546118
O     -5.208894    0.029496    1.003868
O     -1.716502    0.346114    1.837116
O     -3.619710   -2.487880    0.643132
N      1.444039    1.201991   -0.860481
C      2.818601    1.566587   -0.819616
O      3.212709    2.750462   -0.989682
C      3.733108    0.388664   -0.602220
C      4.495953    0.480502    0.729669
C      5.550305    1.542635    0.682488
O      6.628974    1.334231    0.065191
O      5.327351    2.770145    1.298393
H      1.969959   -4.012998   -0.380467
H      3.933677   -2.482305   -0.358494
H     -0.306879   -3.122961   -0.616741
H     -2.133716   -2.055778   -1.421920
H     -1.658288   -2.099068    1.099171
H     -3.326982   -0.747256    2.493851
H     -3.897565    1.517319    1.398419
H     -4.517355    1.190025   -1.096739
H     -1.662815    1.804085   -0.202424
H     -2.189896    1.935641   -1.909410
H     -3.666322    3.453224   -1.325561
H     -5.331821   -0.700672    0.344047
H     -1.211729   -0.178729    2.512220
H     -3.268074   -3.357782    0.317906
H      0.631174    1.829565   -1.045764
H      4.419658    0.253096   -1.466241
H      3.791709    0.691464    1.564775
H      4.988909   -0.492676    0.943121
H      6.026350    3.502530    1.265027
