42

C     -3.658410   -3.236868    2.017833
O     -4.304466   -2.127419    1.401768
C     -3.635167   -1.038915    0.819814
C     -2.231495   -0.949777    0.796781
C     -1.594441    0.157492    0.219525
C     -2.371780    1.165932   -0.371996
C     -3.777143    1.091569   -0.356437
C     -4.401953   -0.015031    0.246539
O     -5.793759   -0.116041    0.281179
O     -4.579255    2.091039   -0.930967
C     -4.080143    3.263907   -1.565924
C     -0.114777    0.212589    0.193147
C      0.595079    1.400267    0.460375
C      1.991477    1.378957    0.400627
C      2.658955    0.184993    0.100422
C      4.065586    0.113020    0.035707
C      4.673647   -1.122976   -0.263803
C      3.897255   -2.263446   -0.492869
C      2.501673   -2.184452   -0.426803
C      1.879681   -0.968900   -0.132860
O      0.552965   -0.907784   -0.076682
O      4.524584   -3.472385   -0.786106
O      4.824406    1.272438    0.271153
C      6.246704    1.329290    0.235244
O     -0.072669    2.574465    0.807998
H     -3.047241   -2.893060    2.878932
H     -3.017942   -3.764139    1.279561
H     -4.428136   -3.944062    2.388932
H     -1.627877   -1.732151    1.237796
H     -1.879476    1.992252   -0.865198
H     -6.398543    0.592070   -0.117193
H     -3.483309    3.863412   -0.846384
H     -4.934999    3.877804   -1.916134
H     -3.458372    2.987895   -2.443630
H      2.544468    2.288439    0.601125
H      5.749925   -1.212098   -0.321158
H      1.899866   -3.067172   -0.604704
H      3.992523   -4.317658   -0.957422
H      6.614726    1.049963   -0.774557
H      6.573400    2.365654    0.457789
H      6.675571    0.649418    1.001408
H      0.428860    3.431471    1.009833
