50

C      6.472771    2.434038   -1.373740
C      5.018166    1.980751   -1.301249
N      4.804428    1.086109   -0.161707
C      3.603166    0.303033   -0.012629
C      2.371030    0.847158   -0.412094
C      1.180440    0.148362   -0.226253
C      1.196594   -1.133985    0.371274
C      2.421036   -1.709507    0.767292
C      2.459623   -2.992123    1.351499
C      3.675172   -3.569129    1.715905
C      4.867720   -2.885359    1.496162
C      4.854908   -1.613171    0.922508
C      3.636479   -0.993630    0.566448
N      0.019676   -1.799284    0.544786
C     -1.153438   -1.242250    0.160913
C     -2.357624   -1.912887    0.288688
C     -3.561944   -1.324741   -0.149576
C     -3.584086    0.039857   -0.630173
N     -4.714017    0.712631   -0.853210
C     -5.976750    0.397413   -0.157725
C     -4.761738    1.934890   -1.688210
C     -4.586462    3.201243   -0.845150
C     -2.326184    0.679382   -0.838797
C     -1.131598    0.084381   -0.452006
O      0.031449    0.701726   -0.609641
C     -4.744372   -2.261819   -0.242438
H      6.614509    3.095216   -2.254497
H      6.744285    2.997912   -0.456042
H      7.142005    1.553277   -1.475077
H      4.369043    2.876303   -1.202266
H      4.761622    1.449249   -2.243233
H      5.553072    1.012016    0.563014
H      2.324386    1.835846   -0.848554
H      1.552031   -3.557226    1.524051
H      3.693129   -4.555812    2.160719
H      5.809432   -3.346163    1.765815
H      5.809565   -1.140006    0.745331
H     -2.349141   -2.922868    0.683013
H     -6.552227   -0.370810   -0.709599
H     -6.639137    1.287286   -0.100748
H     -5.783146    0.100599    0.894827
H     -4.014226    1.896915   -2.509355
H     -5.743339    1.994374   -2.208706
H     -4.510536    4.083737   -1.514467
H     -5.459899    3.344700   -0.175899
H     -3.671947    3.148319   -0.220640
H     -2.243856    1.679003   -1.236065
H     -5.280323   -2.111642   -1.201699
H     -4.420976   -3.325162   -0.250344
H     -5.418769   -2.138151    0.628527
