34

C      1.366939   -1.622361   -0.876839
C     -0.117574   -1.425407   -0.516080
C     -0.555042    0.006629   -0.866894
O      0.282874    0.946676   -0.195107
C      1.658238    0.744549   -0.040350
C      2.445510    1.786590    0.456286
C      3.823024    1.619939    0.606697
C      4.419651    0.405647    0.248428
C      3.646707   -0.648957   -0.251372
C      2.243679   -0.498964   -0.363827
O      4.303643   -1.820557   -0.634200
O      4.591852    2.669256    1.105277
C     -1.996236    0.246959   -0.482732
C     -3.002098    0.236392   -1.464195
C     -4.339810    0.431415   -1.107171
C     -4.689534    0.630165    0.232010
C     -3.693699    0.630695    1.217597
C     -2.355320    0.435920    0.863813
O     -6.026366    0.823308    0.572646
O     -0.904974   -2.348501   -1.223347
H      1.690595   -2.588303   -0.434145
H      1.479490   -1.683389   -1.981245
H     -0.244505   -1.580148    0.582027
H     -0.427243    0.159068   -1.962594
H      1.985101    2.730582    0.719933
H      5.491046    0.282598    0.347159
H      3.835652   -2.601868   -1.074073
H      5.594367    2.581503    1.224299
H     -2.752183    0.075419   -2.505535
H     -5.106059    0.425003   -1.871948
H     -3.955810    0.778700    2.257473
H     -1.599205    0.430599    1.639164
H     -6.311997    0.969131    1.533917
H     -0.780713   -3.228287   -0.780313
