40

C     -1.781619   -0.387093    1.911298
C     -1.380834    0.053228    0.479261
C     -0.703886    1.498224    0.497779
C      0.452861    1.684867   -0.519807
C      1.389034    0.462983   -0.569234
C      0.470335   -0.550478   -1.290537
C     -0.682361   -1.086622   -0.362353
C     -1.842576   -1.697320   -1.201891
C     -2.912024   -0.617532   -1.334734
C     -2.653802    0.347010   -0.270329
O     -3.759480   -0.514868   -0.198270
C     -2.845914    1.785040   -0.392645
O     -3.855602    2.371759   -0.862289
O     -1.746699    2.426184    0.147881
O     -0.161823   -2.081237    0.489368
C     -0.095651    0.388695   -2.307316
O     -0.500355    0.067848   -3.455551
O     -0.101172    1.683967   -1.830792
C      2.188661    0.059358    0.716243
C      3.081371    1.240793    1.156691
C      3.092048   -1.152838    0.399546
O      1.322281   -0.264876    1.768430
H     -2.350445   -1.341516    1.885183
H     -2.422355    0.384683    2.391082
H     -0.902593   -0.537386    2.563432
H     -0.325123    1.749296    1.512179
H      0.998650    2.635373   -0.339897
H      2.188442    0.728131   -1.306740
H      1.045156   -1.367987   -1.777670
H     -1.504560   -2.043080   -2.201719
H     -2.286900   -2.572462   -0.677460
H     -3.319806   -0.220976   -2.288270
H      0.143909   -2.836625   -0.078663
H      3.742108    1.572057    0.326790
H      2.457707    2.099297    1.483270
H      3.723804    0.948057    2.014955
H      3.714011   -1.419886    1.280845
H      2.483855   -2.041126    0.135122
H      3.772864   -0.925990   -0.449043
H      1.868482   -0.526952    2.555856
