37

C     -3.282607    2.703894    1.277585
O     -2.894381    1.461194    0.700848
C     -1.574148    1.098121    0.385873
C     -1.312867   -0.164215   -0.182565
C     -2.319452   -1.112246   -0.445449
C     -1.994166   -2.328432   -0.987358
C     -3.215191   -3.077505   -1.134912
O     -3.322304   -4.242659   -1.598962
O     -4.280376   -2.315597   -0.682259
C     -3.811104   -1.044635   -0.220490
C     -0.676038   -2.647111   -1.284954
O     -0.374557   -3.764878   -1.779478
O      0.272456   -1.746434   -1.038175
C      0.023150   -0.537753   -0.512893
C      1.091516    0.359637   -0.286384
C      0.814711    1.609667    0.313913
C     -0.500092    1.968771    0.631377
O      1.847592    2.502953    0.600327
C      2.522068   -0.065737   -0.619734
C      3.274048    1.031949   -1.344000
O      4.281014    1.540683   -0.875946
C      3.236718   -0.620841    0.638744
C      4.534341   -1.296416    0.269185
O      5.609490   -0.823626    0.603879
O      3.456000    0.402334    1.577629
H     -4.383681    2.711985    1.411131
H     -2.803863    2.829965    2.271563
H     -3.000507    3.541760    0.605638
H     -4.265442   -0.231759   -0.825286
H     -4.042891   -0.926436    0.858997
H     -0.673760    2.937639    1.078873
H      1.673135    3.403190    1.031599
H      2.482828   -0.896910   -1.356955
H      2.900606    1.384181   -2.300212
H      2.577850   -1.400241    1.089067
H      4.514085   -2.205576   -0.323039
H      3.615821   -0.038915    2.452822
