24

C     -1.861435    0.459513    1.106161
C     -1.276010    0.374015   -0.318879
C     -0.355205   -0.861869   -0.519419
C      0.891159   -0.927864    0.416022
C      1.866874    0.276812    0.355085
C      2.341743    0.576871   -1.041298
O      3.251525   -0.121517   -1.561122
O      1.760423    1.601864   -1.778503
O      1.282902    1.414927    0.933501
O      1.615891   -2.098674    0.129839
O      0.061151   -0.931448   -1.861049
O     -2.321754    0.353361   -1.260133
O     -2.781743    1.513678    1.195164
H     -2.387159   -0.487654    1.352182
H     -1.058467    0.604811    1.860865
H     -0.691994    1.295578   -0.514526
H     -0.964010   -1.768572   -0.284933
H      0.534672   -0.996227    1.469710
H      2.760484   -0.000483    0.963351
H      2.018463    2.055594    1.120908
H      1.097054   -2.861689    0.497475
H     -0.670078   -1.361894   -2.376761
H     -2.863122   -0.462154   -1.090786
H     -2.251364    2.353023    1.207146
