44

C     -1.323400   -1.662229    1.105826
C     -1.370627   -0.245757    0.488418
C      0.016585    0.208729   -0.133347
C      0.851127   -0.852664   -0.973762
C      1.707651   -1.766246   -0.106592
C      2.644027   -0.737405    0.486479
C      1.871291   -0.028686    1.614324
C      1.024690    0.973370    0.821199
C      0.335545    1.976859    1.697499
C     -0.937472    1.837596    2.059761
C     -1.793465    0.733136    1.586379
O     -2.914042    0.595517    2.146089
C      2.103273    1.600573   -0.092607
C      2.731063    0.308237   -0.669492
O      1.837564   -0.136187   -1.684320
C      4.138875    0.474840   -1.252118
O      3.005910    2.437962    0.602745
C     -2.431733   -0.207500   -0.673600
C     -3.781632   -0.909718   -0.420872
C     -4.718035   -0.659577   -1.565081
O     -4.793105   -1.489071   -2.509524
O     -5.475963    0.506629   -1.616364
H     -1.107984   -2.426798    0.330447
H     -2.295403   -1.928305    1.571393
H     -0.590292   -1.729912    1.927199
H     -0.272099    0.984078   -0.881998
H      0.216380   -1.433433   -1.674328
H      2.280111   -2.468304   -0.753270
H      1.167579   -2.368208    0.646033
H      3.613291   -1.167001    0.821637
H      2.572090    0.478355    2.311504
H      1.271173   -0.710851    2.243404
H      0.907165    2.794754    2.118943
H     -1.359651    2.558074    2.749958
H      1.645065    2.210683   -0.903184
H      4.445593   -0.463636   -1.760776
H      4.882483    0.693759   -0.458357
H      4.146735    1.299561   -1.995776
H      3.688646    1.889144    1.063559
H     -1.995418   -0.677187   -1.582021
H     -2.631999    0.856649   -0.935315
H     -4.262764   -0.544658    0.506405
H     -3.630417   -2.006159   -0.324542
H     -5.418412    1.200990   -0.880944
