36

C     -3.973229   -0.074389   -1.050476
C     -3.532312    0.337217    0.361982
C     -3.842070    1.816185    0.623140
C     -2.057395   -0.037131    0.660155
C     -0.985028    0.736419   -0.153418
C     -0.685515    2.107503    0.395160
O     -0.600431    2.304468    1.637548
O     -0.456434    3.160443   -0.485234
N      0.255658   -0.041498   -0.256470
C      1.042062   -0.473842    0.869376
O      0.681081   -0.194676    2.044383
C      2.309400   -1.261085    0.662432
C      3.362006   -0.407466   -0.075742
C      4.690791   -1.102743   -0.135907
O      5.469176   -1.050766    0.853486
N      5.063001   -1.856277   -1.290072
N      2.004561   -2.503289   -0.054394
H     -3.702741   -1.133347   -1.248211
H     -3.509814    0.569218   -1.826630
H     -5.076579    0.020265   -1.141341
H     -4.153945   -0.251601    1.073431
H     -3.493263    2.110195    1.635963
H     -3.356983    2.465216   -0.135663
H     -4.938750    1.986070    0.573123
H     -1.939127   -1.124685    0.456742
H     -1.875524    0.085580    1.749480
H     -1.365806    0.877790   -1.185907
H     -0.241192    4.088316   -0.140570
H      0.585674   -0.287923   -1.216629
H      2.716534   -1.526038    1.665550
H      3.493968    0.558688    0.459698
H      3.019530   -0.168180   -1.105635
H      5.979746   -2.355067   -1.320168
H      4.425353   -1.919160   -2.114712
H      2.822387   -3.150074    0.026489
H      1.865210   -2.304338   -1.071794
