34

C     -0.326612    2.591685   -0.917504
C     -0.999277    1.849728    0.232486
C     -0.769658    0.310576    0.164457
C     -1.350229   -0.397708    1.435904
C     -2.230508   -1.491094    0.860198
C     -2.536726   -0.978416   -0.541236
O     -1.452880   -0.187583   -0.973141
O     -3.704106   -0.196018   -0.557234
O     -3.390597   -1.702660    1.625302
O     -2.069192    0.468183    2.290456
C      0.729334   -0.003710   -0.031642
C      1.630503    0.974984   -0.528152
C      1.139207    2.318703   -0.901436
O      1.940037    3.223389   -1.262822
C      2.990209    0.657325   -0.703617
C      3.467184   -0.635849   -0.448847
C      2.563030   -1.621885   -0.035167
C      1.215209   -1.315709    0.151951
C      4.899162   -0.958224   -0.640800
O      5.328515   -2.122692   -0.423870
O      5.792138    0.020656   -1.061810
H     -0.751936    2.261708   -1.889554
H     -0.510637    3.682511   -0.805866
H     -0.601495    2.250818    1.191999
H     -2.085908    2.077817    0.186591
H     -0.551726   -0.855950    2.057971
H     -1.651336   -2.439816    0.789778
H     -2.643873   -1.840704   -1.239510
H     -4.469988   -0.821561   -0.645207
H     -3.819499   -2.522180    1.264751
H     -2.906567    0.745092    1.835459
H      3.675558    1.415806   -1.061532
H      2.895300   -2.637830    0.139220
H      0.557363   -2.119391    0.442425
