43

C      6.624355    2.497702    0.204883
C      6.329541    1.041564    0.084019
O      6.457132    0.294680    1.092046
O      5.875341    0.530806   -1.137463
C      5.486648   -0.828843   -1.334601
C      3.971835   -0.997901   -1.178222
C      3.503779   -0.787978    0.266491
C      2.032052   -1.075331    0.390355
C      1.088607   -0.051146    0.149712
C     -0.262661   -0.373889    0.243223
C     -0.686785   -1.637186    0.547440
C      0.210551   -2.675039    0.780403
C      1.585079   -2.387570    0.694750
O     -1.995168   -1.687885    0.573085
C     -2.451441   -0.478593    0.290236
C     -1.386483    0.399399    0.069971
C     -3.894066   -0.150597    0.227067
C     -4.338562    1.158943   -0.079483
C     -5.709917    1.393775   -0.121259
C     -6.616165    0.414754    0.120584
C     -6.230742   -0.885473    0.425544
C     -4.853715   -1.167454    0.478464
O     -7.893027    0.930635    0.011076
C     -7.781360    2.321743   -0.320544
O     -6.371447    2.575382   -0.395205
H      7.501384    2.655663    0.867424
H      5.742553    3.018370    0.632574
H      6.849273    2.923657   -0.795310
H      5.758347   -1.114480   -2.372757
H      6.037642   -1.512730   -0.652270
H      3.452676   -0.278278   -1.848752
H      3.701356   -2.026822   -1.503104
H      4.075155   -1.454781    0.949035
H      3.699902    0.259980    0.579243
H      1.400008    0.955153   -0.102342
H     -0.138011   -3.672273    1.015029
H      2.301424   -3.182191    0.862082
H     -1.418084    1.450782   -0.180750
H     -3.652465    1.969757   -0.279073
H     -6.967135   -1.655071    0.615904
H     -4.537652   -2.175767    0.714775
H     -8.258963    2.520961   -1.302745
H     -8.240790    2.943573    0.476176
