22

C      0.705131    0.552079   -0.673858
C     -0.739606    0.788910   -0.197400
C     -1.490342   -0.485141    0.258891
C     -2.864555   -0.108143    0.746139
O     -3.751093    0.265136   -0.067483
O     -3.152806   -0.141836    2.104798
N     -1.588041   -1.479767   -0.818837
C      1.618812   -0.000758    0.427016
N      3.008336    0.009116   -0.026388
O      3.779462   -0.415891    1.004363
H      0.717273   -0.124798   -1.554115
H      1.114054    1.529383   -1.012345
H     -1.302308    1.265907   -1.030113
H     -0.719384    1.519689    0.641562
H     -0.948471   -0.939020    1.117197
H     -0.648334   -1.895090   -1.009857
H     -2.221887   -2.260106   -0.528516
H     -1.961029   -1.044175   -1.693990
H      1.524440    0.635589    1.334993
H      1.319481   -1.040780    0.684620
H      3.107207   -0.702293   -0.787678
H      4.493661    0.266775    1.081002
