35

C     -0.010357    2.128903   -1.737583
C     -1.010751    1.806041   -0.634003
C     -0.926586    0.316320   -0.178822
C     -1.848623    0.082815    1.054791
C     -3.121982   -0.432980    0.433802
C     -2.615306   -1.101011   -0.839730
O     -1.411853   -0.483136   -1.242199
O     -2.367640   -2.463395   -0.610367
O     -3.985240    0.629815    0.116414
O     -2.068973    1.244763    1.817534
C      0.532302   -0.101914    0.087175
C      1.620720    0.674203   -0.389742
C      1.370628    1.859990   -1.238412
O      2.316612    2.614563   -1.593339
C      2.942606    0.275385   -0.118257
C      3.208431   -0.923350    0.560520
C      2.134452   -1.749132    0.917531
C      0.820096   -1.355580    0.666136
C      4.600243   -1.351652    0.843438
O      4.854165   -2.571428    1.030585
O      5.646845   -0.433969    0.927151
H     -0.208919    1.504440   -2.634890
H     -0.110989    3.198792   -2.023010
H     -2.033889    2.035276   -1.002554
H     -0.796002    2.491340    0.215774
H     -1.454127   -0.706634    1.729026
H     -3.630989   -1.153192    1.117447
H     -3.359579   -0.991351   -1.662218
H     -3.250899   -2.917020   -0.602645
H     -4.867313    0.224747   -0.091933
H     -2.569453    0.964973    2.628367
H      3.763146    0.875467   -0.488078
H      2.309675   -2.705941    1.394009
H      0.031380   -2.052355    0.913241
H      5.498171    0.566206    0.891560
