26

C      3.363608    0.668882    0.155761
C      1.863260    0.553944    0.157596
C      1.116013    1.662739    0.291203
C     -0.385385    1.603703    0.305423
C     -0.929073    0.553984   -0.686526
C     -0.079309   -0.728281   -0.842443
C      1.204255   -0.798096    0.014255
C     -1.464768   -0.795159   -0.178888
C     -1.590951   -1.062404    1.333361
C     -2.560774   -1.415354   -1.052424
H      3.844329   -0.328365    0.073168
H      3.705478    1.142312    1.100468
H      3.691265    1.291477   -0.703449
H      1.596730    2.633432    0.381648
H     -0.771814    2.597229   -0.005392
H     -0.746739    1.456710    1.339646
H     -1.324555    0.923092   -1.657912
H     -0.007919   -1.064728   -1.899820
H      1.901337   -1.492275   -0.501071
H      1.038177   -1.240767    1.013411
H     -2.564614   -0.667081    1.690858
H     -1.573873   -2.158129    1.509963
H     -0.797858   -0.610964    1.956373
H     -2.418485   -1.189475   -2.131386
H     -3.550487   -1.020744   -0.740690
H     -2.557848   -2.517938   -0.923133
