45

C     -4.703198   -1.292871   -0.418894
C     -3.484923   -1.518061    0.443870
C     -2.277580   -0.994752    0.135987
C     -1.986079   -0.138425   -1.073242
C     -1.425517    1.194342   -0.634628
C     -0.059998    1.313861   -0.311757
C      0.468416    2.534912    0.162486
C     -0.375976    3.674865    0.206236
C     -1.734597    3.539074   -0.090914
C     -2.267247    2.310880   -0.492924
O     -3.631416    2.203441   -0.763740
O      0.082716    4.957317    0.515786
C      1.864783    2.517000    0.689339
O      2.341553    3.505722    1.306424
C      2.676942    1.243369    0.647028
C      2.196706    0.321776   -0.490081
O      0.777092    0.200466   -0.451194
C      2.829088   -1.045462   -0.385251
C      2.346167   -1.988856    0.540338
C      2.953664   -3.243157    0.651554
C      4.052106   -3.563128   -0.150450
C      4.547696   -2.627699   -1.062457
C      3.943262   -1.372019   -1.177766
O      4.048661    1.526235    0.515699
C     -3.605133   -2.356041    1.690895
H     -4.523624   -1.692010   -1.439364
H     -5.595948   -1.806915   -0.006264
H     -4.932829   -0.208624   -0.475389
H     -1.436920   -1.206242    0.793396
H     -1.245518   -0.670464   -1.707447
H     -2.872782    0.011628   -1.721107
H     -2.380968    4.405576   -0.023540
H     -4.257077    2.995002   -0.670130
H      1.053305    5.232745    0.479916
H      2.521952    0.726331    1.619000
H      2.465357    0.783965   -1.467062
H      1.501494   -1.752654    1.175805
H      2.574687   -3.966098    1.362333
H      4.522015   -4.534114   -0.062043
H      5.402786   -2.874461   -1.678420
H      4.344869   -0.655099   -1.883139
H      4.172760    2.020379   -0.337179
H     -2.926098   -3.232236    1.621161
H     -4.639668   -2.729685    1.838728
H     -3.324980   -1.749810    2.578400
