42

C     -3.248039    3.311965   -1.338656
C     -2.421167    2.072613   -1.369449
O     -2.767710    1.111380   -2.108223
O     -1.242595    2.013501   -0.616544
C     -0.426510    0.843641   -0.502173
C     -0.878505   -0.011862    0.700276
O      0.052145   -1.070478    0.944755
C      1.438316   -0.913204    0.812582
C      1.975405    0.217270    0.170789
C      1.007679    1.244629   -0.286687
O      1.351664    2.448407   -0.433994
C      3.382240    0.325892    0.005063
C      4.232978   -0.657040    0.579353
C      3.662945   -1.768592    1.227652
C      2.278916   -1.898950    1.320460
O      4.463286   -2.766133    1.786229
O      5.639363   -0.597243    0.525948
C      6.426877    0.465336   -0.000162
O      3.941826    1.356388   -0.753306
C     -2.253794   -0.595148    0.482309
C     -3.372780   -0.032368    1.120235
C     -4.651381   -0.548034    0.888519
C     -4.828369   -1.626436    0.016217
C     -3.718393   -2.189206   -0.627497
C     -2.438705   -1.675200   -0.398869
O     -6.108473   -2.128949   -0.205519
H     -3.059484    3.869440   -0.397273
H     -4.326344    3.051304   -1.390233
H     -2.983232    3.955155   -2.203373
H     -0.465409    0.246771   -1.440608
H     -0.888327    0.638650    1.604116
H      1.852815   -2.764545    1.812511
H      5.475023   -2.734496    1.752154
H      7.497170    0.245432    0.190392
H      6.173068    1.420835    0.505587
H      6.282678    0.543840   -1.097995
H      3.417835    1.934486   -1.394535
H     -3.257561    0.811077    1.789585
H     -5.506389   -0.106258    1.384344
H     -3.846519   -3.021194   -1.308298
H     -1.592720   -2.113936   -0.913438
H     -6.269822   -2.908739   -0.832247
