37

C     -1.648452   -0.338345    0.736934
C     -0.184928   -0.010629    0.400351
C      0.610961   -1.249184   -0.046018
C      2.079439   -0.922704   -0.361959
C      2.913915   -0.661600    0.901714
C      4.370296   -0.513218    0.566989
C      4.832575    0.563291   -0.076963
C      6.257573    0.728407   -0.399508
O      6.639387    1.764654   -1.005221
O      7.187568   -0.245596   -0.044527
C     -2.484687   -0.680952   -0.509089
C     -3.991782   -0.776407   -0.189721
C     -4.792886    0.463016   -0.624057
C     -4.434579    1.718192    0.172845
O     -5.316285    2.751653   -0.166570
H     -2.085368    0.546077    1.245699
H     -1.687572   -1.184263    1.457925
H      0.279822    0.413409    1.314903
H     -0.147420    0.771119   -0.389655
H      0.559191   -2.038762    0.735338
H      0.155092   -1.659881   -0.971397
H      2.129559   -0.045313   -1.043373
H      2.515984   -1.792073   -0.901830
H      2.566776    0.256498    1.421027
H      2.799277   -1.517903    1.601114
H      5.050565   -1.293486    0.887111
H      4.144436    1.346539   -0.373495
H      8.169419   -0.132441   -0.266769
H     -2.301781    0.064666   -1.313684
H     -2.151465   -1.667737   -0.895795
H     -4.408876   -1.646895   -0.742243
H     -4.163490   -0.980539    0.890348
H     -4.636381    0.652667   -1.708568
H     -5.873393    0.246064   -0.475271
H     -4.513328    1.505357    1.262677
H     -3.394834    2.030705   -0.068678
H     -5.044329    3.535611    0.377988
