25

C     -3.350934    0.040256   -0.089551
C     -1.883099   -0.224846    0.259423
C     -1.222269    1.047774    0.849149
C      0.223528    0.777016    1.310952
C      0.964241   -0.015283    0.276291
C      0.361407   -0.739381   -0.723449
C     -1.112811   -0.729173   -0.986162
O      1.264619   -1.384865   -1.425456
C      2.450237   -1.130973   -0.909387
C      2.311895   -0.287129    0.180586
C      3.408546    0.269795    1.028467
H     -3.911431    0.343012    0.820504
H     -3.819420   -0.881974   -0.494743
H     -3.434094    0.848770   -0.847346
H     -1.857737   -1.023005    1.035437
H     -1.810836    1.412700    1.718957
H     -1.214885    1.852443    0.080573
H      0.744785    1.740922    1.493258
H      0.206938    0.197317    2.258679
H     -1.447829   -1.755785   -1.247663
H     -1.305412   -0.061001   -1.853305
H      3.380046   -1.530831   -1.291916
H      3.619698    1.314751    0.720211
H      4.330653   -0.337834    0.912856
H      3.104165    0.257323    2.095985
