36

C      6.096977    1.104331   -1.123692
O      4.692500    1.337142   -1.152713
C      3.731069    0.456070   -0.634934
C      4.073685   -0.765738   -0.034491
C      3.089912   -1.631054    0.460297
C      1.719379   -1.238907    0.417068
C      1.387546   -0.013716   -0.214993
C      2.387255    0.812377   -0.732945
O      0.123210    0.376561   -0.323313
C     -0.901594   -0.319851    0.154088
C     -0.664552   -1.511665    0.860442
C      0.655561   -1.969156    0.999690
O      0.866951   -3.006892    1.680025
O     -1.727386   -2.205323    1.445742
C     -2.267237    0.212996   -0.056114
C     -2.497034    1.592091    0.066745
C     -3.775817    2.124786   -0.147739
C     -4.836632    1.275206   -0.504055
C     -4.609800   -0.099176   -0.650587
C     -3.329485   -0.626346   -0.433334
O     -5.662375   -0.935908   -1.017998
O     -6.118795    1.781137   -0.720330
O     -3.995115    3.494527   -0.008811
O      3.532495   -2.863490    0.950103
H      6.343345    0.183976   -1.694173
H      6.446776    1.009319   -0.073991
H      6.616602    1.963630   -1.594801
H      5.108964   -1.073362    0.028054
H      2.116756    1.748698   -1.206005
H     -1.595262   -3.062975    1.968185
H     -1.684598    2.254106    0.341921
H     -3.163108   -1.685417   -0.584000
H     -5.531403   -1.934158   -1.133161
H     -6.331809    2.767081   -0.627771
H     -3.247411    4.128941    0.246856
H      2.950429   -3.679843    1.061422
