39

C     -3.145198   -2.513256    2.129150
O     -3.323641   -1.203026    1.599450
C     -2.322946   -0.434823    0.982251
C     -2.623524    0.864151    0.491157
C     -1.599694    1.634002   -0.134432
C     -0.293085    1.094207   -0.258740
C     -0.020036   -0.196641    0.238336
C     -1.021939   -0.942252    0.845987
O      1.196591   -0.723305    0.136050
C      2.224212   -0.091818   -0.423784
C      2.034571    1.192616   -0.953216
C      0.776354    1.789526   -0.870781
O      0.624291    2.944041   -1.353726
C      3.539047   -0.779218   -0.482506
C      4.751293   -0.060345   -0.518361
C      5.974487   -0.736741   -0.563266
C      6.004933   -2.132645   -0.565785
C      4.811981   -2.856282   -0.517197
C      3.585937   -2.185823   -0.471222
O     -1.822632    2.930721   -0.646126
C     -3.037554    3.672693   -0.637209
O     -3.909554    1.427753    0.599516
C     -5.068070    0.841069    1.182775
H     -2.386900   -2.497900    2.940235
H     -4.108067   -2.865991    2.551911
H     -2.834778   -3.212276    1.324087
H     -0.770489   -1.928181    1.212937
H      2.839421    1.720077   -1.448886
H      4.762856    1.020573   -0.486310
H      6.900640   -0.177077   -0.588891
H      6.953124   -2.653482   -0.599686
H      4.836616   -3.938391   -0.515030
H      2.673213   -2.768029   -0.438434
H     -3.819204    3.140656   -1.219083
H     -2.858969    4.654393   -1.121526
H     -3.367771    3.860304    0.406040
H     -4.895852    0.635761    2.260161
H     -5.349471   -0.083224    0.635915
H     -5.910193    1.558181    1.100491
