38

C     -1.370533   -2.538416   -1.549438
C     -0.769164   -2.073868   -0.212061
C      0.752722   -2.265770   -0.186410
C      1.479745   -1.229387   -1.043597
C      1.159926    0.231046   -0.639236
C     -0.294681    0.439117   -0.218706
C     -1.177624   -0.637950    0.076985
C     -2.497008   -0.343298    0.520989
C     -2.911627    0.983064    0.656457
C     -2.055116    2.038070    0.341637
C     -0.766000    1.761561   -0.117794
C     -2.539638    3.455975    0.425066
O     -3.434728   -1.334572    0.826759
C      2.158179    0.844677    0.402617
C      2.226786    0.078537    1.729924
C      3.568997    1.037015   -0.178659
H     -1.057468   -1.873683   -2.381581
H     -1.052800   -3.577997   -1.777550
H     -2.479158   -2.526444   -1.502383
H     -1.155824   -2.738389    0.588446
H      1.102616   -2.217094    0.862699
H      1.012676   -3.283865   -0.550707
H      1.193387   -1.380513   -2.106525
H      2.567707   -1.432664   -0.996863
H      1.285782    0.827894   -1.571316
H     -3.921650    1.189496    0.990387
H     -0.120571    2.586807   -0.394548
H     -2.976956    3.754490   -0.550488
H     -3.312416    3.561915    1.216103
H     -1.701677    4.142289    0.671953
H     -3.261866   -2.327119    0.757588
H      1.805759    1.868135    0.653735
H      2.770859    0.685120    2.485165
H      1.206560   -0.116559    2.122308
H      2.774190   -0.879202    1.608195
H      4.087645    0.068502   -0.329978
H      3.519805    1.576916   -1.147984
H      4.183162    1.646164    0.518809
