42

C      4.449289    0.435437    2.354199
O      4.924647    1.167844    1.229232
C      4.206383    1.353226    0.036856
C      4.792034    2.104201   -0.997330
C      4.097637    2.309082   -2.192071
C      2.823247    1.769381   -2.373059
C      2.222867    1.003591   -1.357471
C      2.919528    0.810174   -0.151061
C      0.863357    0.426790   -1.515919
C      0.338122    0.098085   -2.773193
C     -0.944318   -0.442508   -2.858573
O     -1.401996   -0.736796   -3.995874
C     -1.695584   -0.656467   -1.680413
C     -3.001863   -1.191863   -1.688406
C     -3.678053   -1.418951   -0.464251
C     -3.075686   -1.040641    0.765466
C     -1.770438   -0.487585    0.758548
C     -1.094824   -0.308589   -0.452856
O      0.132733    0.205280   -0.427256
O     -1.077351   -0.092363    1.921422
C     -1.534682   -0.179639    3.266477
O     -3.722835   -1.200341    2.006143
C     -5.056170   -1.641992    2.237890
O     -4.930474   -2.037476   -0.449382
O     -3.610322   -1.473584   -2.917051
O      6.063865    2.658860   -0.854423
H      4.260098   -0.621247    2.069884
H      5.220135    0.455564    3.151487
H      3.519781    0.899100    2.747060
H      4.546218    2.897187   -2.982830
H      2.304627    1.976862   -3.299122
H      2.459805    0.226041    0.634853
H      0.918849    0.230368   -3.677034
H     -0.742823    0.209402    3.938692
H     -1.729051   -1.238038    3.539750
H     -2.442163    0.444473    3.406430
H     -5.777699   -0.990764    1.701022
H     -5.270599   -1.572480    3.323914
H     -5.168809   -2.703872    1.934870
H     -5.365294   -2.476518   -1.247536
H     -4.584102   -1.712396   -3.034330
H      6.611911    2.543159   -0.010514
