43

C      7.024098    0.443809    0.575244
C      5.577777    0.026397    0.576915
C      5.206867   -1.043706    1.298108
C      4.557045    0.805749   -0.229413
C      3.970180   -0.025945   -1.406151
C      2.512806   -0.045290   -1.098632
C      2.275798    0.654182    0.045981
O      3.439106    1.156305    0.587779
C      0.995437    0.817916    0.552117
C     -0.077410    0.226164   -0.130651
C      0.143519   -0.527296   -1.324885
C      1.478718   -0.627979   -1.837157
O      1.819991   -1.249254   -3.042372
C     -0.985010   -1.159185   -1.898616
O     -0.873629   -1.926656   -2.889827
C     -2.256633   -0.966429   -1.334989
C     -2.383638   -0.153124   -0.195169
O     -1.301025    0.379024    0.359462
C     -3.695204    0.114713    0.437985
C     -4.830591    0.424591   -0.332148
C     -6.058821    0.698746    0.287509
C     -6.154318    0.675664    1.689024
C     -5.021747    0.388202    2.456663
C     -3.798795    0.117235    1.837850
O     -7.361846    0.939852    2.334502
O     -7.180787    0.998580   -0.483692
O     -3.379611   -1.601761   -1.872382
H      7.654628   -0.388942    0.197778
H      7.341668    0.701543    1.607759
H      7.191906    1.328035   -0.074205
H      5.935590   -1.604442    1.876049
H      4.172674   -1.373865    1.317399
H      5.004415    1.740541   -0.631683
H      4.148234    0.483850   -2.377460
H      4.367605   -1.063648   -1.443582
H      0.832879    1.385529    1.459590
H      1.169234   -1.476514   -3.778312
H     -4.761030    0.478956   -1.411140
H     -5.089532    0.375858    3.537141
H     -2.934464   -0.103222    2.452559
H     -8.209613    1.154119    1.823199
H     -7.138480    1.022643   -1.495880
H     -3.327991   -2.200943   -2.687423
