44

C     -1.055194   -2.287223    0.152410
C     -0.732506   -0.777882    0.051065
C      0.786718   -0.696045   -0.243495
C      1.236889   -2.067485    0.108068
O      2.438236   -2.443904    0.119378
O      0.190237   -2.926304    0.356726
C      1.476935    0.398903    0.596004
C      2.907772    0.614221    0.174591
C      3.968718    0.127436    0.971697
C      5.270625    0.341071    0.528288
C      5.538362    0.994332   -0.630310
C      4.527506    1.491003   -1.446925
C      3.196369    1.296077   -1.036120
O      6.905570    1.058546   -0.817560
C      7.535878    0.404342    0.292714
O      6.456276   -0.038503    1.127169
C     -1.569542   -0.050631   -1.019565
C     -3.028705   -0.013024   -0.646186
C     -3.489576    0.926477    0.303579
C     -4.839833    0.907206    0.640363
C     -5.706098    0.019966    0.089845
C     -5.297473   -0.926017   -0.844834
C     -3.939963   -0.941493   -1.213432
O     -6.970097    0.229153    0.606565
C     -6.892682    1.315573    1.540219
O     -5.515802    1.718218    1.531322
H     -1.739733   -2.499198    1.001248
H     -1.500654   -2.673699   -0.789416
H     -0.942983   -0.321012    1.045861
H      0.969561   -0.531902   -1.329131
H      0.927279    1.356783    0.465359
H      1.422417    0.141994    1.677577
H      3.785462   -0.401188    1.898481
H      4.758569    2.008996   -2.368322
H      2.391183    1.671396   -1.655433
H      8.128126   -0.465462   -0.061104
H      8.178063    1.121527    0.845667
H     -1.200000    0.993042   -1.124681
H     -1.434449   -0.540567   -2.009179
H     -2.818546    1.641247    0.762996
H     -6.001126   -1.628351   -1.271788
H     -3.598306   -1.672407   -1.935381
H     -7.539157    2.154171    1.206549
H     -7.184325    0.970620    2.554349
