26

C      0.886263   -1.616931    2.425748
C     -0.256352   -1.433163    1.474325
O     -1.276243   -2.161866    1.608244
C     -0.209444   -0.430318    0.379132
C     -1.353357    0.352637    0.102696
C     -1.310007    1.302487   -0.934502
C     -0.150252    1.480872   -1.686553
C      0.980738    0.706002   -1.418848
C      0.962140   -0.259868   -0.395269
O      2.078101   -1.075308   -0.141228
C      3.314348   -1.004381   -0.844247
O     -0.132736    2.433438   -2.703446
O     -2.507756    0.174861    0.885231
C     -3.722472    0.898549    0.716023
H      1.490486   -0.687683    2.495060
H      0.498930   -1.855409    3.438781
H      1.528764   -2.454187    2.082313
H     -2.171185    1.915341   -1.163302
H      1.866179    0.857052   -2.020843
H      3.766944    0.002069   -0.720400
H      4.011117   -1.760096   -0.427496
H      3.154857   -1.224307   -1.920947
H      0.692606    2.589503   -3.270362
H     -3.545253    1.983868    0.870329
H     -4.459525    0.549333    1.467755
H     -4.136892    0.717504   -0.298192
