43

C     -4.889625    0.365982    1.345017
C     -4.021380   -0.144581    0.194197
C     -2.873866    0.831044   -0.173027
C     -3.420788    2.146340   -0.757820
C     -1.841844    0.180789   -1.139811
C     -1.037137   -0.878110   -0.422626
O     -1.343427   -2.096372   -0.544332
N      0.049299   -0.490059    0.430773
C      0.928072   -1.471535    1.078287
C      1.993834   -1.991550    0.082504
C      2.714672   -0.909317   -0.747361
C      3.620011    0.001531    0.092968
C      4.473220    0.909352   -0.804801
N      5.322805    1.794486   -0.010860
C      1.532236   -0.914644    2.344813
O      1.002956    0.071713    2.925478
O      2.631360   -1.540310    2.926891
N     -2.495977   -0.384248   -2.325646
H     -4.260200    0.623537    2.223170
H     -5.474603    1.255664    1.032959
H     -5.606465   -0.426905    1.646185
H     -4.667005   -0.331390   -0.691354
H     -3.595339   -1.120139    0.510184
H     -2.331203    1.099424    0.761890
H     -2.589609    2.787821   -1.120168
H     -3.960681    2.721974    0.022267
H     -4.117876    1.951764   -1.599793
H     -1.120992    0.962006   -1.474333
H      0.292187    0.525550    0.488443
H      0.316366   -2.342254    1.401450
H      2.743168   -2.621880    0.608655
H      1.479774   -2.666864   -0.636008
H      3.340046   -1.432402   -1.503934
H      1.975483   -0.295611   -1.305938
H      4.289718   -0.620163    0.726477
H      2.994812    0.642542    0.748926
H      5.117692    0.288530   -1.464634
H      3.811886    1.527265   -1.450840
H      4.716287    2.378687    0.609596
H      5.937778    1.211639    0.602625
H      3.032203   -1.191135    3.789123
H     -1.760070   -0.805406   -2.938907
H     -2.907777    0.397236   -2.884137
