26

C      2.321530    1.060925   -0.904237
C      1.358911    0.486993    0.151495
C      2.162659    0.116003    1.409994
C      0.558789   -0.727093   -0.419763
C     -0.363896   -1.417115    0.614612
C     -1.526044   -0.506708    1.037162
C     -2.223433    0.080900   -0.167451
C     -3.444432    0.604129   -0.040148
C     -1.535014    0.121447   -1.477608
C     -0.273544   -0.302436   -1.610612
H      3.034638    0.281297   -1.248388
H      1.761259    1.450138   -1.779655
H      2.898664    1.911228   -0.481919
H      0.649607    1.297892    0.428201
H      2.779189   -0.790379    1.228620
H      1.485134   -0.063034    2.269932
H      2.834872    0.949993    1.705083
H      1.289052   -1.489417   -0.771473
H     -0.787784   -2.336689    0.152329
H      0.201516   -1.756831    1.506058
H     -2.244366   -1.105716    1.638911
H     -1.147340    0.316566    1.679424
H     -3.954141    1.045922   -0.887617
H     -3.952136    0.600288    0.916508
H     -2.067015    0.465560   -2.356824
H      0.183323   -0.293861   -2.592633
