29

C     -3.192881   -0.300542   -0.667879
C     -1.989564   -0.432193    0.280604
C     -0.896157   -1.351716   -0.320175
C      0.168956   -0.577443   -1.109588
C      0.858286    0.543985   -0.282135
C      0.081803    0.921561    1.001017
C     -1.441290    0.949492    0.768826
O     -1.796839    2.017765   -0.078346
C      2.309580    0.207287    0.043928
C      3.300775    1.015658   -0.365854
C      2.668411   -1.019104    0.844268
H     -2.881022    0.099259   -1.655635
H     -3.958632    0.371882   -0.225653
H     -3.662104   -1.294965   -0.827022
H     -2.374174   -0.962559    1.181495
H     -1.350586   -2.123482   -0.979458
H     -0.400805   -1.906016    0.504202
H     -0.322029   -0.127361   -2.000265
H      0.918981   -1.297788   -1.504032
H      0.852824    1.451115   -0.928413
H      0.296437    0.193424    1.813486
H      0.420311    1.918987    1.358139
H     -1.911991    1.162769    1.753907
H     -1.431227    1.834359   -0.980665
H      3.096809    1.915891   -0.937260
H      4.336617    0.786564   -0.132555
H      3.207051   -0.720357    1.768421
H      3.322275   -1.683054    0.240200
H      1.770185   -1.593417    1.139897
