28

C     -2.725644    0.354339   -0.664527
C     -1.936398    0.936787    0.483048
C     -2.540825    1.836189    1.276712
C     -0.510340    0.487135    0.795414
C      0.369165    0.421435   -0.479777
C      1.869468    0.331300   -0.162124
C      2.683346    0.367720   -1.429170
O      2.744674    1.403058   -2.074915
C      3.430372   -0.839817   -1.913615
C     -0.506609   -0.811653    1.637355
C     -0.960471   -2.026265    0.883338
O     -2.172611   -2.366620    0.899203
O     -0.045162   -2.779267    0.158564
H     -3.673287   -0.084262   -0.285705
H     -2.964931    1.154626   -1.396099
H     -2.170898   -0.445968   -1.191025
H     -3.561198    2.153648    1.081886
H     -2.029799    2.265242    2.133220
H     -0.048710    1.269648    1.440464
H      0.086884   -0.443785   -1.114891
H      0.191572    1.344712   -1.075493
H      2.175132    1.183033    0.483339
H      2.079499   -0.606659    0.392154
H      4.516612   -0.614101   -1.951050
H      3.270026   -1.711854   -1.245776
H      3.079897   -1.107626   -2.932352
H      0.511891   -0.999381    2.036659
H     -1.161654   -0.671613    2.525371
