40

C      2.954364   -0.243467   -2.064089
C      4.347289    0.140853   -1.535991
C      4.364974    0.321971   -0.007920
N      3.363255   -0.545267    0.623796
C      1.973213   -0.158489    0.278979
C      1.853416    0.351635   -1.184856
C      1.402563    0.859233    1.296132
C     -0.056743    1.172609    1.055733
O     -0.354975    1.982303    0.191205
C     -1.136481    0.586664    1.939876
C     -2.271470   -0.157402    1.192598
C     -3.145232    0.773200    0.327094
C     -4.395546    0.028929   -0.176868
C     -4.179981   -1.491992   -0.279611
C     -2.715390   -1.826481   -0.598773
N     -1.765618   -1.309445    0.412062
H      2.837347    0.116185   -3.109216
H      2.851419   -1.351170   -2.071816
H      4.677991    1.089062   -2.013200
H      5.071212   -0.651422   -1.826501
H      4.170328    1.386295    0.252534
H      5.375587    0.064322    0.377181
H      3.507305   -0.530703    1.660554
H      1.366137   -1.085401    0.359021
H      1.941423    1.460312   -1.221525
H      0.859724    0.077378   -1.600968
H      1.986684    1.803988    1.260228
H      1.522414    0.450480    2.322398
H     -1.578986    1.411182    2.539627
H     -0.682258   -0.123067    2.664602
H     -2.926835   -0.561587    1.997210
H     -2.563470    1.117906   -0.553935
H     -3.456895    1.667750    0.909080
H     -4.677642    0.432102   -1.174110
H     -5.246289    0.222339    0.512404
H     -4.840367   -1.909853   -1.069946
H     -4.459230   -1.975916    0.682017
H     -2.468235   -1.413208   -1.603625
H     -2.603610   -2.929758   -0.657961
H     -0.901393   -1.030379   -0.103420
