29

C      3.805385   -0.013271    0.571499
C      2.429104    0.000675   -0.033527
C      1.814351    1.166328   -0.283701
C      0.402774    1.165385   -0.801158
C     -0.447416    0.160476    0.017399
C      0.227148   -1.256025    0.050083
C      1.713049   -1.283707   -0.374074
C     -1.955405    0.132721   -0.431887
C     -2.610340    1.511987   -0.204739
C     -2.765780   -0.897604    0.394753
O     -2.059299   -0.156042   -1.807885
H      4.510424    0.537053   -0.086779
H      4.179594   -1.050915    0.695116
H      3.781291    0.474648    1.568743
H      2.295623    2.109152   -0.037422
H      0.008761    2.197408   -0.709990
H      0.406437    0.879040   -1.875096
H     -0.432096    0.532363    1.068498
H      0.147663   -1.658499    1.084095
H     -0.300176   -1.977173   -0.605138
H      1.767317   -1.419952   -1.476393
H      2.214962   -2.158453    0.092483
H     -3.704867    1.461028   -0.391553
H     -2.450100    1.862572    0.837602
H     -2.208820    2.269195   -0.908714
H     -2.416665   -1.935644    0.222429
H     -2.682831   -0.675977    1.480639
H     -3.839328   -0.867459    0.109140
H     -1.830760   -1.109309   -1.952750
