35

C     -1.906616    2.180058   -1.327664
C     -1.401035    0.751247   -1.101707
C     -2.578292   -0.205329   -0.785041
C     -2.045901   -1.619702   -0.473815
C     -0.919451   -1.540935    0.571249
C      0.129130   -0.505707    0.130314
O     -0.482872    0.765697   -0.021919
O      1.123843   -0.425052    1.132888
C      2.240275    0.339583    0.700477
C      3.479497   -0.562184    0.651878
O      3.292406   -1.568399   -0.304344
C      2.449358    1.506833    1.672773
O      2.608071    1.032376    2.982120
O     -0.302677   -2.795394    0.708307
O     -3.084380   -2.424760    0.021839
O     -3.502457   -0.246458   -1.844967
O     -0.825120    3.021484   -1.619054
H     -2.426182    2.543038   -0.412039
H     -2.623877    2.196264   -2.178603
H     -0.892859    0.427269   -2.040887
H     -3.107427    0.173678    0.117869
H     -1.625913   -2.072187   -1.404335
H     -1.343429   -1.213975    1.551067
H      0.587280   -0.855396   -0.828946
H      2.115153    0.789110   -0.315892
H      4.372494    0.044270    0.378819
H      3.650824   -1.024597    1.650127
H      4.116857   -2.120609   -0.288297
H      1.562038    2.177235    1.625400
H      3.345966    2.093733    1.370413
H      2.736267    1.834842    3.551700
H     -0.892716   -3.344174    1.288180
H     -3.620638   -2.716618   -0.761010
H     -3.019887   -0.563880   -2.652741
H     -1.207730    3.928639   -1.744160
