24

C     -2.541979    1.139012   -0.563041
C     -1.602828    0.320213    0.334175
C     -1.451471   -1.105794   -0.220419
C     -0.240088    1.038605    0.530948
C      0.571171    0.375255    1.622133
O      0.264031    0.574546    2.827986
N      1.643749   -0.520579    1.309251
C      2.125988   -0.657460   -0.031910
C      3.078008   -1.552278   -0.312007
C      1.565731    0.223486   -1.071367
O      2.017657    0.208629   -2.248497
N      0.506872    1.124600   -0.731358
H     -2.659267    2.168287   -0.162160
H     -2.151018    1.197912   -1.600802
H     -3.547093    0.666549   -0.592887
H     -2.096138    0.241883    1.329163
H     -0.812180   -1.719729    0.447620
H     -1.004994   -1.091960   -1.237107
H     -2.446093   -1.596876   -0.280906
H     -0.443000    2.077980    0.872744
H      2.091999   -1.058932    2.085539
H      3.484286   -2.186416    0.465714
H      3.464395   -1.670404   -1.316474
H      0.182262    1.803469   -1.456336
