21

C      0.133061    0.756923   -0.904059
C     -1.200767    0.373252   -0.234714
C     -1.207336   -1.128728    0.115373
C      0.040638   -1.499165    0.877596
O      0.054036   -2.535077    1.595040
C      1.272890   -0.701915    0.743298
C      1.323689    0.385433   -0.045431
C      2.581667    1.156785   -0.193847
O      2.782411    1.820383   -1.245408
O      3.548750    1.190217    0.810635
O     -2.343385   -1.419782    0.889332
N     -2.313460    0.686447   -1.134279
H      0.224912    0.241442   -1.885098
H      0.136099    1.853460   -1.089021
H     -1.310149    0.966735    0.703368
H     -1.225663   -1.716064   -0.833137
H      2.145719   -1.029680    1.292548
H      3.403709    0.770654    1.719983
H     -2.532402   -2.387782    0.773454
H     -2.303593    1.714916   -1.325776
H     -3.210826    0.501544   -0.629858
