19

C     -0.668914    1.036817    0.720589
C      0.325119    0.308156    0.043531
C     -0.045094   -0.840960   -0.679656
C     -1.380567   -1.267020   -0.702263
C     -2.354309   -0.542900   -0.008989
C     -2.003851    0.609636    0.699378
O     -2.988473    1.323688    1.378712
O     -1.750143   -2.405892   -1.414523
C      1.730246    0.783038    0.066000
O      1.954331    2.022684    0.117326
C      2.880139   -0.146941    0.057185
O      2.711611   -1.372461    0.292822
O      4.171352    0.321518   -0.175723
H     -0.406896    1.929609    1.275482
H      0.691874   -1.394306   -1.247132
H     -3.385651   -0.872558   -0.026182
H     -2.768497    2.163327    1.901687
H     -1.069886   -2.953474   -1.928618
H      4.357609    1.298039   -0.369625
