20

C     -0.203541    0.442392    0.946817
N     -0.967716    0.930412    1.873942
C     -2.073905    1.504096    1.207878
O     -3.020725    2.080748    1.803454
N     -2.005743    1.359567   -0.194683
C     -0.757289    0.652226   -0.454610
C     -1.042106   -0.656552   -1.147582
O     -1.675556   -1.565761   -0.545766
O     -0.640259   -0.855099   -2.465680
O      0.111762    1.467899   -1.199068
N      1.011418   -0.250182    1.289492
C      1.990754   -0.757323    0.368438
O      1.911737   -0.518782   -0.864534
N      3.085984   -1.530881    0.857109
H     -2.695001    1.711684   -0.896131
H     -0.836182   -1.726776   -2.943041
H     -0.375515    1.750515   -2.017091
H      1.196965   -0.398852    2.307128
H      3.177034   -1.740823    1.875680
H      3.807883   -1.898506    0.198249
