39

C      1.945255   -2.092303   -1.067484
C      0.575710   -2.326107   -0.445322
N     -0.318555   -1.163301   -0.639492
C     -1.576725   -1.370779    0.113588
C     -2.545763   -0.242702   -0.136618
C     -2.013847    1.052877   -0.107529
C     -0.564902    1.222218    0.242679
C      0.313521    0.200320   -0.525372
C      1.772257    0.177193   -0.043662
C      2.382556    1.283091    0.585622
C      3.743855    1.273490    0.913292
C      4.532346    0.148446    0.585388
C      3.940202   -0.937047   -0.064086
C      2.574461   -0.927188   -0.376157
O      5.895188    0.068931    0.879434
O      4.267782    2.399746    1.551785
C     -2.838811    2.162304   -0.334610
C     -4.195454    1.981659   -0.598729
C     -4.748248    0.695672   -0.597298
C     -3.938643   -0.421873   -0.342365
O     -4.557371   -1.674028   -0.284811
O     -6.110621    0.519067   -0.834605
H      2.561252   -3.010091   -0.945187
H      1.841539   -1.873208   -2.152162
H      0.124635   -3.220916   -0.927508
H      0.701670   -2.547369    0.639985
H     -2.008814   -2.338226   -0.205841
H     -1.369029   -1.425707    1.205496
H     -0.243864    2.255318   -0.013475
H     -0.447688    1.075205    1.338564
H      0.367909    0.590269   -1.565611
H      1.818448    2.171709    0.826602
H      4.549644   -1.794522   -0.323260
H      6.415490    0.795917    1.348812
H      5.235054    2.496026    1.824987
H     -2.433102    3.165955   -0.306623
H     -4.822635    2.844523   -0.783603
H     -4.100830   -2.519484    0.025827
H     -6.723870    1.304914   -1.017180
