29

C     -3.868838   -0.592175    1.164925
C     -2.961376    0.059781    0.154190
C     -1.626091   -0.065108    0.305947
C     -0.626715    0.546449   -0.646043
C      0.788204    0.273756   -0.193110
C      1.371692    0.975125    0.888236
C      2.682954    0.683688    1.274236
C      3.419503   -0.300054    0.612912
C      2.854722   -1.013762   -0.456060
C      1.533592   -0.727095   -0.842335
C      3.619869   -2.072501   -1.159505
O      3.005589   -2.970376   -1.794959
O      5.014112   -2.098709   -1.152900
O      0.678267    1.954510    1.603176
C     -3.556780    0.833850   -0.997908
H     -3.691297   -1.688490    1.176412
H     -3.661924   -0.180310    2.175445
H     -4.939142   -0.415750    0.930239
H     -1.249431   -0.633688    1.154252
H     -0.786967    1.642376   -0.723967
H     -0.793250    0.126952   -1.661965
H      3.130689    1.216061    2.104080
H      4.418725   -0.516222    0.964937
H      1.084937   -1.276725   -1.661491
H      5.571766   -1.355769   -0.752341
H     -0.284502    2.202265    1.417071
H     -3.239803    0.383352   -1.961788
H     -4.666018    0.824572   -0.964865
H     -3.222488    1.891679   -0.956822
