45

C     -4.591078   -0.740253    2.545277
C     -3.530188   -1.428074    1.737808
O     -2.680468   -2.093977    2.310150
C     -3.472911   -1.278495    0.242656
C     -2.675507   -0.061253   -0.126530
O     -3.273068    0.971005   -0.532308
C     -1.202564   -0.043589    0.020499
C     -0.419874   -0.886694   -0.795356
C      0.988146   -0.926639   -0.633205
C      1.607804   -0.027538    0.257767
C      0.823790    0.836430    1.033985
C     -0.574623    0.821623    0.947876
C     -1.357406    1.763019    1.837360
C     -1.533988    3.095244    1.178597
O     -0.529095    3.826417    0.961921
O     -2.816293    3.523254    0.823495
C     -3.057182    4.763424    0.170477
C      3.086831    0.004297    0.366874
O      3.641077    0.709099    1.254731
C      3.915261   -0.772587   -0.585125
C      3.297180   -1.673820   -1.481674
C      1.841637   -1.926306   -1.327996
O      1.363822   -3.049702   -1.638718
C      4.092709   -2.345778   -2.446804
C      5.482260   -2.181960   -2.435232
C      6.089041   -1.327181   -1.517199
C      5.311822   -0.614419   -0.605799
O      3.545406   -3.150135   -3.448586
O     -1.063886   -1.632760   -1.789656
H     -5.264922   -0.146995    1.892256
H     -5.194819   -1.497829    3.087220
H     -4.112604   -0.061489    3.283200
H     -4.502186   -1.193724   -0.167929
H     -3.020900   -2.190113   -0.202420
H      1.302450    1.523943    1.721634
H     -0.825571    1.908932    2.803105
H     -2.347814    1.336239    2.095842
H     -2.564857    4.769194   -0.825505
H     -4.150057    4.893580    0.031644
H     -2.670844    5.602624    0.788392
H      6.094108   -2.704984   -3.159955
H      7.164595   -1.201329   -1.524719
H      5.804461    0.061373    0.081806
H      2.560470   -3.174382   -3.672506
H     -0.580165   -2.077690   -2.557354
