47

C      5.197354   -0.003104    1.702545
C      4.830266    0.305311    0.247836
C      5.953184   -0.148227   -0.695686
O      5.626785    0.187427   -2.016128
N      3.568553   -0.358230   -0.098291
C      2.293593    0.154832    0.316976
O      2.228102    1.219255    0.992280
C      1.032515   -0.603319   -0.005277
C      0.574954   -1.411366    1.226584
N     -0.803237   -1.915729    1.069703
C     -1.746447   -0.774212    0.952294
C     -3.236915   -1.243473    0.840983
C     -4.116984   -0.083848    0.497293
C     -5.499788    0.064329    0.544248
N     -5.864090    1.206314   -0.098031
C     -4.721926    1.746982   -0.566339
C     -4.550422    2.883067   -1.354320
C     -3.237214    3.194774   -1.771124
C     -2.142913    2.367015   -1.406169
C     -2.358626    1.211089   -0.613436
C     -3.661536    0.973137   -0.220551
C     -1.326024    0.239473   -0.134374
C     -0.036800    0.336343   -0.506754
C     -0.901812   -2.893701   -0.034514
H      5.315283   -1.098297    1.848695
H      4.402679    0.363025    2.385849
H      6.147784    0.503198    1.975368
H      4.713167    1.406162    0.133407
H      6.903302    0.358298   -0.412043
H      6.097635   -1.249418   -0.611649
H      6.379132   -0.136380   -2.576537
H      3.592068   -1.237507   -0.663754
H      1.248663   -1.313948   -0.831932
H      1.274875   -2.258486    1.401452
H      0.626017   -0.776583    2.140308
H     -1.698112   -0.209414    1.911326
H     -3.566208   -1.697820    1.799768
H     -3.366109   -1.987597    0.030196
H     -6.198483   -0.637651    0.979880
H     -6.835300    1.562417   -0.240108
H     -5.391865    3.498976   -1.643719
H     -3.064594    4.072628   -2.380028
H     -1.155074    2.647013   -1.740393
H      0.262866    1.047192   -1.263331
H     -1.028765   -2.392873   -1.018813
H     -1.759181   -3.574217    0.145280
H     -0.000351   -3.542858   -0.079089
