26

C      4.346704    0.375714    0.332593
N      2.886900    0.379098    0.219422
C      2.191465   -0.787969    0.421694
C      0.803034   -0.758788    0.347125
C      0.142315    0.417944    0.089382
C      0.825328    1.611985   -0.100341
C      2.228568    1.565815   -0.021817
C     -1.198888    0.110065    0.087287
C     -1.278973   -1.243565    0.345199
N     -0.053960   -1.790771    0.507821
C     -2.508445   -1.895288    0.416383
C     -3.672975   -1.130536    0.216754
C     -3.590336    0.256790   -0.047029
C     -2.333172    0.893397   -0.113675
O     -4.760792    0.986644   -0.239805
H      4.794940    1.150728   -0.326254
H      4.764807   -0.607266    0.024809
H      4.638058    0.580560    1.384237
H      2.704779   -1.717949    0.636051
H      0.303135    2.539869   -0.294282
H      2.786739    2.484974   -0.154739
H      0.178405   -2.788252    0.713076
H     -2.567644   -2.956790    0.619178
H     -4.641201   -1.611963    0.266583
H     -2.250622    1.953949   -0.314045
H     -4.738171    1.981603   -0.430575
