23

C     -2.424259   -0.549547    0.556226
C     -1.041576    0.028857    0.878933
C     -0.552492    1.090077   -0.158883
C      0.982694    1.150905   -0.129935
C      1.588685   -0.243238   -0.424190
C      0.619512   -1.387236   -0.015884
O     -0.112035   -1.021472    1.138410
O      1.333902   -2.563370    0.258826
O      2.838730   -0.372575    0.208674
O      1.456062    2.079319   -1.071766
O     -0.979243    0.775412   -1.463278
H     -2.756171   -1.210415    1.384859
H     -3.165065    0.270481    0.443547
H     -2.398046   -1.146828   -0.378941
H     -1.157521    0.574521    1.841283
H     -0.946781    2.092583    0.135996
H      1.292418    1.473814    0.892904
H      1.758500   -0.336379   -1.519841
H     -0.085044   -1.599869   -0.856029
H      1.676749   -2.899787   -0.610438
H      2.677871   -0.387803    1.188717
H      1.260569    2.982486   -0.708350
H     -1.867458    1.200063   -1.590841
