18

C     -0.842196   -0.480622   -0.768369
C      0.637531   -0.261724   -0.525105
C      1.126238    0.743036    0.238237
C      0.352502    1.807854    0.915894
O      0.971340    2.642154    1.628798
O     -1.027348    1.922782    0.790951
C      1.582285   -1.254445   -1.099970
O      1.208950   -2.445135   -1.272178
O      2.876947   -0.900056   -1.478980
C     -1.517068   -1.068802    0.434052
O     -1.050739   -2.104496    0.980754
O     -2.688209   -0.496604    0.920507
H     -1.333599    0.462878   -1.081167
H     -0.992763   -1.177285   -1.620727
H      2.193763    0.780707    0.417680
H     -1.534405    2.660269    1.265465
H      3.200496    0.059115   -1.469799
H     -3.163724   -0.889626    1.723957
