12

C     -0.712692   -0.919900    0.366222
C      0.621616   -0.796090    0.294498
C      1.355773    0.252976   -0.442075
O      0.842450    0.828700   -1.437241
O      2.666456    0.558190   -0.088104
C     -1.695842    0.080913   -0.086349
O     -2.867457   -0.290669   -0.361457
O     -1.377634    1.435132   -0.134362
H     -1.107538   -1.813269    0.835295
H      1.220102   -1.556574    0.780992
H      3.120547    0.099122    0.692614
H     -2.065781    2.121469   -0.420033
