34

C      2.463682   -1.667924    0.183633
C      2.443408   -0.446007    0.827441
C      3.306086    0.082822    1.788912
N      3.051809    1.342830    2.243432
C      1.991890    2.063984    1.772857
N      1.166532    1.522281    0.834255
N      1.410701    0.289165    0.393786
C      0.731643   -0.427551   -0.525858
C      1.377132   -1.653141   -0.683632
C     -0.484136    0.039543   -1.307562
C     -1.628897   -1.000950   -1.221342
C     -2.857377   -0.156840   -0.976585
C     -2.278523    1.101897   -0.331757
O     -0.952966    1.270161   -0.786723
C     -2.281005    1.029976    1.202454
O     -3.597984    1.012710    1.680730
O     -3.537624    0.151494   -2.172514
O     -1.773580   -1.784171   -2.381792
C     -0.064765    0.281971   -2.701302
N      0.264180    0.472266   -3.794454
N      4.423932   -0.650208    2.294104
H      3.175779   -2.472145    0.309752
H      1.807415    3.062151    2.144992
H      1.099630   -2.448420   -1.361118
H     -1.494763   -1.665903   -0.333523
H     -3.566257   -0.686473   -0.302377
H     -2.874016    1.991544   -0.634274
H     -1.739203    0.118759    1.543146
H     -1.754730    1.923647    1.606878
H     -3.530851    0.958458    2.669784
H     -2.919009    0.656315   -2.763411
H     -1.060930   -2.473237   -2.350892
H      4.645197   -1.611821    1.955023
H      5.037598   -0.227182    3.025022
