38

C     -2.867469    0.394652    2.847861
C     -2.948432    0.596931    1.530228
C     -3.042632   -0.549371    0.566074
O     -1.869270   -1.347814    0.637126
C     -0.997920   -1.160172   -0.475462
C      0.306499   -1.953825   -0.210933
C      1.109135   -1.396555    0.981841
C      0.736554    0.069680    1.266806
C      0.347914    0.824427   -0.034820
O     -0.766346    0.235235   -0.708336
C      1.499197    1.049747   -1.064181
C      2.632744    1.965536   -0.557655
O      2.116870    3.176485   -0.076424
N      0.929106    1.618206   -2.285485
N      1.582693    1.686242   -3.327415
N      2.235005    1.754071   -4.367894
O      1.752888    0.736252    1.968613
O      2.487034   -1.506830    0.728745
C     -1.617930   -1.753373   -1.720209
O     -2.325066   -2.794607   -1.643655
O     -1.360621   -1.184125   -2.964339
H     -2.804004    1.240727    3.524203
H     -2.859462   -0.610576    3.258451
H     -2.958401    1.613104    1.147463
H     -3.261996   -0.152180   -0.451479
H     -3.912537   -1.180070    0.846936
H      0.934610   -1.942963   -1.128870
H      0.063226   -3.021178   -0.009888
H      0.857745   -1.986784    1.894801
H     -0.169459    0.071398    1.913634
H      0.003236    1.830172    0.290109
H      1.952572    0.071915   -1.323843
H      3.226210    1.454980    0.228967
H      3.339910    2.172559   -1.391733
H      2.896104    3.699698    0.245811
H      1.790563    0.331995    2.874937
H      2.713943   -2.470927    0.799226
H     -1.752216   -1.582660   -3.809211
