50

C     -3.084761    0.372308   -2.543881
C     -3.593205   -0.377923   -1.335340
C     -2.750070   -1.117451   -0.561637
C     -3.236956   -1.919154    0.657203
C     -4.781180   -2.085092    0.666518
C     -5.490890   -0.790446    0.289011
C     -5.090738   -0.385091   -1.124469
C     -2.783449   -1.192012    1.943634
C     -2.614437   -3.333736    0.649125
C     -1.289758   -1.082695   -0.820639
C     -0.560649   -0.002721   -0.515898
C      0.908347    0.064058   -0.709869
C      1.617786    0.859393    0.113268
C      3.091519    0.989208    0.078498
C      3.725322    1.795559    0.939373
C      5.200760    1.976012    0.954733
C      5.686735    3.127298    1.466389
C      7.109356    3.539694    1.487259
O      7.959905    3.006769    0.727471
O      7.514810    4.573103    2.326720
C      6.106534    0.891150    0.417997
C      1.574512   -0.746848   -1.797209
H     -2.433652    1.212329   -2.225053
H     -2.512778   -0.311322   -3.206661
H     -3.922451    0.796627   -3.137248
H     -5.134741   -2.418446    1.667133
H     -5.086525   -2.871520   -0.060245
H     -6.590609   -0.947152    0.327237
H     -5.240488    0.020526    1.005008
H     -5.504301    0.626438   -1.327486
H     -5.545895   -1.090947   -1.852838
H     -3.143290   -0.141888    1.959035
H     -3.168387   -1.710457    2.847619
H     -1.674843   -1.167093    2.013997
H     -3.021999   -3.944569    1.483723
H     -2.839959   -3.851734   -0.307492
H     -1.511307   -3.293438    0.773334
H     -0.815288   -1.985758   -1.180314
H     -1.058043    0.844483   -0.055687
H      1.086537    1.424054    0.873613
H      3.660440    0.436721   -0.655890
H      3.133277    2.381920    1.634043
H      4.988967    3.837674    1.894524
H      6.861507    5.033645    2.949626
H      6.985384    0.747665    1.080412
H      5.591347   -0.090942    0.392856
H      6.441741    1.152556   -0.608151
H      0.835120   -1.144159   -2.522411
H      2.131299   -1.594713   -1.346135
H      2.269446   -0.111880   -2.385458
