22

C      2.896260   -0.853549   -0.270566
C      2.182116   -0.741575   -1.466648
C      0.964642   -0.054327   -1.494382
C      0.456310    0.532625   -0.323416
C      1.176079    0.408050    0.877124
C      2.392922   -0.280440    0.900474
C     -0.874410    1.241953   -0.346216
C     -2.050533    0.250561   -0.247794
C     -2.073685   -0.451586    1.087369
O     -2.543438    0.129476    2.101460
O     -1.529544   -1.725673    1.225589
O     -3.273758    0.904051   -0.480864
H      3.837680   -1.387176   -0.250445
H      2.570370   -1.190183   -2.371888
H      0.416517    0.018212   -2.425629
H      0.793010    0.838948    1.793860
H      2.944152   -0.372519    1.827356
H     -0.930502    1.982824    0.482044
H     -0.962834    1.815393   -1.294972
H     -1.933043   -0.513542   -1.046622
H     -1.112388   -2.208287    0.438710
H     -3.345924    1.656763    0.163341
