40

C      1.411968    3.918009   -0.094529
C      0.231601    3.003516   -0.126290
O     -0.897503    3.455846   -0.457955
N      0.386951    1.626308    0.243803
C     -0.735082    0.680107    0.283171
C     -1.266290    0.580288    1.731104
C     -0.483365   -0.491239    2.503428
C     -0.561505   -1.870296    1.783557
O     -0.982061   -1.743699    0.425052
C     -0.280118   -0.714602   -0.254938
C     -0.553063   -0.883494   -1.777253
C      0.176747    0.128369   -2.712185
C      1.699967   -0.080873   -2.842597
O      2.353180    0.252444   -1.650711
O     -0.411818    0.097602   -3.989072
O     -0.306763   -2.207529   -2.188736
C     -1.560650   -2.743360    2.509909
O     -2.717482   -2.911410    2.039718
O     -1.234293   -3.332476    3.729264
O      0.701692   -2.490645    1.835535
O     -2.633830    0.256094    1.708849
H      1.168958    4.886887   -0.580341
H      1.707075    4.103874    0.959008
H      2.260986    3.449780   -0.635277
H      1.306095    1.330262    0.644348
H     -1.564558    1.062163   -0.353149
H     -1.136048    1.565166    2.239053
H      0.577969   -0.163694    2.570186
H     -0.854943   -0.545033    3.551206
H      0.811486   -0.850285   -0.089285
H     -1.643342   -0.711876   -1.918783
H      0.013173    1.153578   -2.324238
H      1.932264   -1.129493   -3.129777
H      2.078422    0.581579   -3.653300
H      3.318327    0.082961   -1.807102
H     -0.237032   -0.798369   -4.380256
H      0.581041   -2.478545   -1.837789
H     -0.326223   -3.193440    4.155940
H      0.653871   -3.305936    1.269822
H     -2.985807    0.431460    2.620608
