24

C     -2.679607    0.720200   -0.305290
C     -1.856464   -0.521055    0.070226
C     -0.411794   -0.146397    0.470625
C      0.424086    0.367129   -0.719371
C      1.904101    0.622849   -0.364555
C      2.620198   -0.665251   -0.056648
O      2.750045   -1.059917    1.134020
O      3.105594   -1.446867   -1.100366
N      2.021266    1.563824    0.752440
N     -2.507489   -1.215510    1.183804
H     -2.284861    1.192187   -1.228064
H     -2.667594    1.462248    0.521493
H     -3.733283    0.432756   -0.507475
H     -1.825540   -1.204425   -0.809215
H      0.080182   -1.052507    0.883844
H     -0.435529    0.619467    1.276453
H     -0.006390    1.321375   -1.089379
H      0.373250   -0.366206   -1.554357
H      2.392689    1.071760   -1.259267
H      3.576205   -2.324870   -0.916553
H      1.571919    2.465851    0.471502
H      3.035190    1.779567    0.895290
H     -1.984319   -2.101322    1.374092
H     -3.461856   -1.514887    0.876751
