32

C      2.999099    2.091325    0.946998
C      2.657419    0.701567    0.485649
C      1.379052    0.405617    0.002289
N      1.057160   -0.860235   -0.407336
C      1.987283   -1.863536   -0.291581
O      1.699648   -3.047773   -0.619717
N      3.232609   -1.594714    0.187072
C      3.584671   -0.342187    0.576715
O      4.744686   -0.130153    1.024100
C     -0.311596   -1.148278   -0.888557
C     -1.263347   -1.375990    0.299484
C     -2.163603   -0.160725    0.253309
C     -2.071908    0.272420   -1.210239
O     -0.788588   -0.073938   -1.680027
C     -2.294962    1.779198   -1.390824
O     -3.609673    2.129347   -1.049931
O     -3.478092   -0.420032    0.690736
O     -1.977241   -2.584246    0.167372
H      2.242349    2.828845    0.604255
H      3.985084    2.397671    0.538000
H      3.041813    2.113140    2.056054
H      0.640322    1.196724   -0.041397
H      3.930427   -2.370029    0.264897
H     -0.299432   -2.046941   -1.544886
H     -0.713048   -1.402941    1.266318
H     -1.723239    0.624938    0.907740
H     -2.820384   -0.271649   -1.829639
H     -1.557517    2.363142   -0.792625
H     -2.132440    2.038675   -2.458482
H     -3.616514    2.302134   -0.072511
H     -3.945024   -0.959149    0.001477
H     -2.415015   -2.592226   -0.724293
