44

C     -5.150876   -2.096442   -0.480581
C     -4.147001   -0.990930   -0.149818
C     -4.809216    0.389213   -0.383146
C     -3.905603    1.533333    0.086240
C     -3.350375    1.247045    1.485128
C     -2.770118   -0.177986    1.565741
O     -3.761025   -1.134449    1.211322
C     -1.529108   -0.325547    0.702886
C     -1.723942   -0.820273   -0.591094
O     -3.012318   -1.158624   -1.007428
C     -0.649270   -0.977705   -1.460550
C      0.639387   -0.628656   -1.057147
C      0.866378   -0.098685    0.235027
C     -0.233745    0.073154    1.117942
O     -0.025270    0.643345    2.378632
C      2.194362    0.244780    0.582722
O      2.447777    0.720270    1.723385
C      3.237834    0.050163   -0.352145
C      2.899374   -0.488807   -1.616730
O      1.642934   -0.797285   -1.907714
C      3.887043   -0.703892   -2.580384
C      5.215461   -0.390104   -2.306761
C      5.570092    0.141765   -1.067726
C      4.594451    0.369703   -0.075638
O      4.946308    0.906010    1.175556
C      6.268524    1.263768    1.565402
H     -6.041791   -2.024935    0.179746
H     -4.680316   -3.091267   -0.328477
H     -5.478271   -2.019820   -1.539751
H     -5.765707    0.442999    0.182958
H     -5.040768    0.524394   -1.462233
H     -4.484620    2.481724    0.103430
H     -3.067282    1.667164   -0.631372
H     -4.171654    1.343652    2.228589
H     -2.572798    1.999608    1.738218
H     -2.504681   -0.387647    2.621739
H     -0.817018   -1.371541   -2.455465
H     -0.765818    0.861196    3.030726
H      3.622853   -1.116337   -3.546219
H      5.975236   -0.559722   -3.058923
H      6.611357    0.373190   -0.891349
H      6.664442    2.054132    0.893312
H      6.928986    0.371419    1.540273
H      6.245793    1.658624    2.601678
