23

C      1.204187   -0.966367   -0.301175
C      2.489634   -0.731841    0.196215
C      2.896031    0.572280    0.509474
C      2.010501    1.638616    0.322968
C      0.724555    1.406835   -0.174632
C      0.312660    0.101924   -0.493132
C     -1.080107   -0.156436   -1.012248
C     -2.010493   -0.736898    0.070308
C     -2.312764    0.279281    1.146917
O     -1.458006    0.592122    1.960384
N     -3.249830   -1.203923   -0.555090
O      4.173997    0.818119    1.006267
H      0.902272   -1.979668   -0.535825
H      3.167779   -1.563501    0.339016
H      2.318543    2.647657    0.565808
H      0.049388    2.243193   -0.306694
H     -1.521558    0.777319   -1.426469
H     -1.012047   -0.877257   -1.856721
H     -1.514929   -1.614821    0.542115
H     -3.301103    0.721848    1.223435
H     -3.778270   -0.384961   -0.937129
H     -3.848912   -1.650734    0.177368
H      4.838472    0.067214    1.152896
