18

C      1.701176    0.197190   -0.232701
C      0.511264    0.828747    0.514108
C     -0.755859   -0.070734    0.543130
C     -1.332600   -0.329539   -0.863170
O     -2.545345   -1.028051   -0.775287
O     -1.738440    0.506222    1.367990
O      0.895826    1.179569    1.820727
O      2.017506   -1.056921    0.307062
H      1.464043    0.097167   -1.314382
H      2.581141    0.872923   -0.143150
H      0.254067    1.772233   -0.015580
H     -0.486164   -1.053424    0.987552
H     -0.612760   -0.909943   -1.481943
H     -1.520262    0.637707   -1.376312
H     -2.316963   -1.965296   -0.540113
H     -1.985289    1.382721    0.971054
H      1.085415    0.339099    2.314466
H      2.783245   -1.399670   -0.222996
