43

C     -0.477514    2.064593    2.671709
C      0.248215    1.543698    1.452968
C      0.525681    0.217100    1.417945
C      1.323707   -0.567724    0.384393
C      0.625212   -1.897620   -0.029955
C     -0.808669   -1.812723   -0.670249
C     -1.231267   -0.559754   -1.483709
C     -2.070312    0.471858   -0.736113
C     -1.714209    1.769104   -0.565203
C     -0.373394    2.383249   -0.899766
C      0.552732    2.523713    0.329624
C     -3.461083    0.080412   -0.298022
O     -1.722135   -2.158351    0.368486
C     -1.059654   -2.798481    1.393484
O     -1.639173   -3.320202    2.382070
C      0.368699   -2.758202    1.176948
C      1.291609   -3.364410    1.922408
O      1.666679    0.197974   -0.765533
C      2.712295   -0.125371   -1.637121
O      3.482027   -1.094573   -1.395022
C      2.939883    0.720491   -2.842999
H     -1.433939    1.514407    2.802567
H     -0.717634    3.144659    2.585969
H      0.152452    1.918075    3.574520
H      0.240243   -0.355914    2.296577
H      2.273569   -0.832847    0.899887
H      1.297065   -2.450917   -0.722770
H     -0.843731   -2.656701   -1.398190
H     -1.876419   -0.913115   -2.318071
H     -0.361786   -0.145415   -2.013677
H     -2.411168    2.430829   -0.055516
H     -0.570863    3.402103   -1.297788
H      0.142240    1.875789   -1.731520
H      0.441160    3.560647    0.713855
H      1.619883    2.461093    0.032277
H     -4.208758    0.780585   -0.728438
H     -3.526553    0.114107    0.810130
H     -3.724825   -0.941352   -0.642546
H      2.341425   -3.271283    1.676677
H      1.005720   -3.960015    2.779767
H      3.366766    1.696671   -2.532817
H      1.974656    0.893306   -3.362918
H      3.641169    0.220506   -3.544318
