38

C     -0.938181   -3.539756    0.965660
C     -0.718425   -2.181805    0.328630
C      0.515179   -2.005119   -0.242681
C      0.984453   -0.983614   -1.273016
C      1.644060    0.304213   -0.713405
C      0.706115    1.178886    0.150143
C     -0.237911    2.075843   -0.669163
C     -1.594977    2.223555   -0.001750
C     -2.512849    1.223761    0.038403
C     -2.307221   -0.184786   -0.481274
C     -1.790470   -1.120158    0.636555
C     -1.963469    3.549722    0.612290
O      1.567687    1.916827    1.010274
C      2.769888    1.248344    1.133516
O      3.672862    1.579788    1.946234
C      2.847772    0.158869    0.179478
C      3.886912   -0.663983    0.032282
O      1.906345   -1.603921   -2.134782
H     -0.904838   -4.327037    0.182747
H     -1.914916   -3.622282    1.485376
H     -0.142671   -3.741955    1.714843
H      1.203628   -2.844907   -0.157064
H      0.150555   -0.679878   -1.918758
H      1.976804    0.911893   -1.586235
H      0.145772    0.518909    0.813149
H     -0.388787    1.672099   -1.692262
H      0.244423    3.066617   -0.811031
H     -3.468097    1.418041    0.520567
H     -1.729182   -0.182169   -1.404521
H     -3.301572   -0.559643   -0.809678
H     -1.478191   -0.558876    1.540261
H     -2.698279   -1.637826    1.014888
H     -2.202223    3.410767    1.688072
H     -2.851133    3.970416    0.094103
H     -1.133601    4.282892    0.536775
H      3.920097   -1.397947   -0.758196
H      4.729014   -0.608964    0.710162
H      1.405426   -2.266817   -2.680590
