44

C      0.439342    0.221058    0.818081
C     -0.643290    0.183051   -0.274101
C     -1.966005    0.815165    0.195495
N     -2.793634   -0.147541    0.945625
C     -3.933382    0.493888    1.628571
C     -4.940653    1.181449    0.681004
C     -5.554814    0.262639   -0.390234
N     -6.274400   -0.869309    0.196850
C      1.706016   -0.560338    0.424724
N      2.370877    0.018545   -0.756554
C      3.714936   -0.552700   -0.964822
C      4.790446    0.203081   -0.162140
C      6.168463   -0.478487   -0.229076
N      6.756041   -0.407645   -1.569758
H      0.711173    1.277295    1.039193
H      0.043219   -0.224059    1.754906
H     -0.281539    0.760496   -1.152233
H     -0.821777   -0.863275   -0.606062
H     -2.516658    1.143722   -0.712139
H     -1.754756    1.719753    0.808970
H     -2.211496   -0.605629    1.684442
H     -3.133777   -0.900880    0.305509
H     -3.557120    1.250736    2.352580
H     -4.471418   -0.268356    2.234210
H     -5.763189    1.601498    1.297992
H     -4.457026    2.048059    0.183049
H     -4.771955   -0.104949   -1.088220
H     -6.265693    0.868388   -0.994783
H     -6.836427   -1.342418   -0.548214
H     -6.923397   -0.538754    0.948184
H     -5.597291   -1.561604    0.591699
H      2.390192   -0.548357    1.300465
H      1.436786   -1.622852    0.226581
H      2.430828    1.060288   -0.669984
H      1.795513   -0.204203   -1.601067
H      3.729315   -1.634941   -0.703069
H      3.968483   -0.478193   -2.044135
H      4.870452    1.246307   -0.537436
H      4.491336    0.256563    0.905207
H      6.846274    0.031874    0.491582
H      6.083131   -1.540951    0.090055
H      7.747143   -0.741907   -1.524762
H      6.749303    0.577995   -1.920450
H      6.230430   -1.024500   -2.230390
