36

C     -3.522761   -0.579052    0.206664
C     -2.038120   -0.280372    0.061627
C     -1.571271    1.057507    0.084376
C     -2.416669    2.117529    0.496110
C     -1.977221    3.437164    0.479209
C     -0.687642    3.734217    0.066900
C      0.178998    2.712371   -0.311217
C     -0.231315    1.353226   -0.297854
C      0.661781    0.297831   -0.651009
C      0.237610   -1.054781   -0.481145
C      1.122408   -2.148316   -0.672833
C      0.706848   -3.461572   -0.471270
C     -0.590325   -3.727332   -0.062995
C     -1.487503   -2.682439    0.129040
C     -1.106706   -1.336838   -0.099522
C      2.064265    0.625083   -1.173920
C      3.065112    0.931640   -0.045544
C      3.403727   -0.283360    0.759079
O      4.364765   -1.021965    0.414337
O      2.633231   -0.616552    1.868763
H     -4.147552    0.222406   -0.236537
H     -3.817965   -1.478628   -0.370228
H     -3.780949   -0.713155    1.277838
H     -3.414917    1.944030    0.871152
H     -2.639060    4.232881    0.796779
H     -0.348927    4.762495    0.057259
H      1.174857    3.018125   -0.589228
H      2.155069   -2.025311   -0.949244
H      1.403966   -4.277661   -0.613613
H     -0.900976   -4.748638    0.117226
H     -2.468810   -2.948153    0.494619
H      2.013954    1.494150   -1.861237
H      2.466812   -0.156536   -1.845893
H      3.997134    1.338428   -0.494373
H      2.662642    1.709563    0.635932
H      2.835509   -1.447982    2.410750
