34

C      4.960259   -0.260196   -0.732602
C      3.486286    0.000028   -0.535720
C      2.769871    0.743123   -1.496130
C      1.411241    0.989066   -1.314079
C      0.727903    0.517339   -0.184921
C      1.426614   -0.259920    0.775826
C      2.809327   -0.516579    0.591374
O      3.526777   -1.302236    1.501758
C      0.747674   -0.779185    1.983671
O     -0.385511   -1.321275    1.910640
C     -0.737109    0.880533   -0.045124
C     -1.621134   -0.130332   -0.731611
O     -1.399911   -0.433147   -1.895313
C     -2.797940   -0.750584   -0.019934
C     -4.137821   -0.364472   -0.674897
C     -4.423175    1.132135   -0.526456
O     -5.180565   -1.081655   -0.067842
O      3.378209    1.252833   -2.646353
H      5.501214    0.704377   -0.831909
H      5.419749   -0.807731    0.115025
H      5.112715   -0.865363   -1.650964
H      0.883262    1.568986   -2.062208
H      3.107978   -1.782512    2.286895
H      1.237573   -0.727435    2.946551
H     -1.013581    1.004706    1.022471
H     -0.923076    1.872126   -0.512204
H     -2.815335   -0.453031    1.050769
H     -2.677825   -1.855076   -0.051948
H     -4.106315   -0.605036   -1.763746
H     -4.436305    1.421586    0.546195
H     -5.412552    1.370749   -0.971233
H     -3.652682    1.731684   -1.055638
H     -5.141165   -2.006397   -0.427648
H      4.355349    1.112892   -2.868180
