21

C      0.329449    1.270503    0.846906
C     -0.920554    1.128000    1.450993
C     -1.889635    0.286622    0.893753
C     -1.586095   -0.457821   -0.269798
C     -0.330119   -0.292492   -0.880502
C      0.626513    0.576394   -0.333707
C      1.981675    0.709502   -0.972060
C      2.904554   -0.347017   -0.447090
O      3.033504   -1.433989   -1.069488
O      3.591236   -0.157089    0.748524
N     -2.519999   -1.400162   -0.819938
O     -2.568210   -1.585870   -2.053560
O     -3.194768   -2.267074    0.008173
O     -3.146025    0.238494    1.499719
H      1.063038    1.928825    1.295694
H     -1.145183    1.689102    2.349360
H     -0.086192   -0.861562   -1.769659
H      1.894674    0.618341   -2.076991
H      2.411218    1.713293   -0.763767
H      3.492105    0.699989    1.279262
H     -3.941184   -0.227939    1.084175
