16

C     -0.826545   -1.013626   -0.792571
C      0.393497   -1.008609    0.111927
C      0.774051    0.457484    0.178727
C     -0.474103    1.177712   -0.348240
O     -1.469995    0.229795   -0.672338
O     -0.968926    2.083361    0.603403
O      1.868844    0.722348   -0.660911
O      0.085954   -1.518077    1.388297
H     -0.516864   -1.161814   -1.851057
H     -1.527612   -1.829920   -0.515722
H      1.204957   -1.627946   -0.330099
H      1.012151    0.769993    1.223725
H     -0.228440    1.751427   -1.269197
H     -1.338838    1.546667    1.352721
H      2.678078    0.407259   -0.179468
H     -0.666208   -0.986055    1.760801
