34

C      3.273270   -1.945045    1.332483
C      2.853572   -0.670788    0.654013
C      1.501923   -0.402018    0.416466
N      1.118705    0.752652   -0.205882
C      2.068377    1.626851   -0.664238
O      1.730301    2.667215   -1.293575
N      3.389193    1.376962   -0.452359
C      3.799346    0.253691    0.193392
O      5.031518    0.047978    0.366890
C     -0.309130    0.993199   -0.471468
C     -0.935998    2.269537    0.077807
C     -1.196901    0.935446    0.765491
C     -2.464372    0.179806    0.360870
C     -2.109070   -0.575910   -0.929006
C     -0.988999    0.221851   -1.593601
O     -3.229360   -0.668225   -1.769278
C     -2.922651   -0.760366    1.486878
O     -4.133169   -1.382384    1.147609
H      4.030161   -1.728760    2.115823
H      3.711729   -2.636553    0.582899
H      2.410085   -2.446855    1.819473
H      0.753332   -1.120560    0.731806
H      4.102809    2.057151   -0.801800
H     -1.780135    2.673533   -0.520713
H     -0.246439    2.929963    0.644375
H     -0.666693    0.737554    1.722851
H     -3.276887    0.915465    0.162439
H     -1.724576   -1.594387   -0.682081
H     -0.272434   -0.458568   -2.102439
H     -1.396890    0.938619   -2.339580
H     -2.992440   -1.314314   -2.484830
H     -2.136933   -1.517760    1.716748
H     -3.088312   -0.164275    2.409725
H     -3.902930   -2.190705    0.619565
