33

C      1.906105    1.140098   -1.903964
C      2.692709    2.118206   -1.293015
C      2.914712    2.078963    0.084742
C      2.340475    1.066005    0.861202
C      1.516618    0.083125    0.256692
C      1.326323    0.123195   -1.140358
C      0.936599   -0.913529    1.080340
C      1.238430   -0.927945    2.449306
C      2.064183    0.055799    2.991691
N      2.585907    1.024354    2.197305
C      0.004481   -1.937667    0.561553
C     -1.191505   -1.774020   -0.126413
N     -1.659076   -2.995537   -0.446847
N     -0.841416   -3.925176    0.021150
C      0.178630   -3.305885    0.645999
C     -1.890199   -0.518775   -0.475267
C     -1.792159    0.631827    0.325576
C     -2.469115    1.792308   -0.054133
C     -3.246116    1.796890   -1.212738
C     -3.340628    0.631263   -1.974401
N     -2.670549   -0.488221   -1.591547
H      1.749084    1.166587   -2.974593
H      3.139963    2.902320   -1.890181
H      3.538428    2.834106    0.547179
H      0.743627   -0.629442   -1.652790
H      0.815110   -1.683791    3.099917
H      2.285117    0.053635    4.050658
H     -2.540297   -3.204065   -0.966800
H      1.007560   -3.819409    1.114854
H     -1.222005    0.632930    1.243898
H     -2.398229    2.684678    0.554232
H     -3.776484    2.691360   -1.512684
H     -3.946283    0.615812   -2.870562
