22

C     -1.804484   -1.303896   -0.170235
C     -1.531926    0.173141    0.129044
C     -0.036393    0.585639    0.346669
C     -0.022035    2.128831    0.417638
C      0.912303    0.120705   -0.820758
C      1.255383   -1.355120   -0.818839
O      0.867738   -2.085130   -1.769107
O      2.051752   -1.920040    0.176033
O      2.106806    0.864086   -0.856556
O      0.436693    0.127933    1.593296
H     -1.524398   -1.542506   -1.215275
H     -2.893648   -1.497985   -0.073368
H     -1.276695   -1.980786    0.530153
H     -1.963697    0.762749   -0.710323
H     -2.108159    0.444084    1.041484
H      0.980093    2.507245    0.711330
H     -0.743026    2.492183    1.181923
H     -0.294880    2.573339   -0.564154
H      0.381747    0.338749   -1.774329
H      2.448891   -1.369966    0.926847
H      2.553133    0.765387    0.024211
H      0.204801   -0.828642    1.694316
