29

C      4.425290    1.203157   -0.579653
C      3.955039   -0.123717    0.008543
C      2.456613   -0.200284   -0.034844
C      1.710553   -0.870661   -0.996247
C      0.402081   -0.636063   -0.637311
C      0.426158    0.139658    0.481556
O      1.662979    0.396425    0.834223
C     -0.799424    0.573926    1.154339
O     -0.711341    1.155769    2.266391
C     -2.119302    0.227898    0.524632
C     -2.128020   -0.639715   -0.615292
C     -0.849912   -1.090553   -1.237343
O     -0.835782   -1.838032   -2.252470
C     -3.349866   -1.070933   -1.155212
C     -4.554878   -0.658313   -0.595204
C     -4.560970    0.217247    0.486573
C     -3.364875    0.693686    1.033387
O     -3.472782    1.643541    2.052037
O      4.400831   -0.226115    1.334659
H      4.091195    1.295356   -1.635521
H      5.534641    1.252225   -0.555980
H      4.017791    2.055259    0.006238
H      4.391227   -0.949638   -0.600330
H      2.074538   -1.447136   -1.836607
H     -3.374106   -1.735510   -2.009878
H     -5.491115   -1.003709   -1.014665
H     -5.508326    0.555059    0.887964
H     -2.725397    2.259340    2.335366
H      4.297161   -1.178169    1.597867
