26

C      2.746097    0.294481   -0.094833
C      1.245430    0.424306    0.212985
C      0.509025   -0.926971    0.016627
C     -1.002686   -0.755192    0.291514
C     -1.537375    0.440358   -0.530058
C     -0.663083    1.692846   -0.311569
O      0.696540    1.429454   -0.627340
O     -0.794516    2.182232    1.000274
O     -2.885927    0.712095   -0.234958
N     -1.735952   -1.984395   -0.040825
O      1.055492   -1.925747    0.843598
O      2.960287   -0.113717   -1.420190
H      3.253255    1.267986    0.096548
H      3.207652   -0.450934    0.586981
H      1.170582    0.732778    1.281273
H      0.637689   -1.248896   -1.040527
H     -1.144789   -0.536735    1.375157
H     -1.476985    0.177579   -1.609640
H     -1.028432    2.473593   -1.016472
H     -0.299324    3.041998    1.028559
H     -2.958784    0.869609    0.742352
H     -2.752559   -1.861822    0.171055
H     -1.380749   -2.779691    0.537733
H     -1.622773   -2.219819   -1.053918
H      0.950837   -1.627603    1.784995
H      2.851049    0.692206   -1.989321
