25

C      1.150268   -0.867844   -0.661920
C      1.935663    0.084836    0.245577
C      1.098791    1.344519    0.599988
O     -0.178027    1.005404    1.119897
C     -0.947635    0.228612    0.213181
C     -0.247842   -1.121079   -0.086008
O     -1.000834   -1.863039   -1.010340
C     -2.331743    0.011079    0.851824
N     -3.280509   -0.544758   -0.109899
O      0.994248    2.283589   -0.446463
N      3.221984    0.431678   -0.364263
H      1.697062   -1.832796   -0.742391
H      1.061923   -0.446386   -1.687079
H      2.142971   -0.458114    1.195618
H      1.643857    1.856660    1.421283
H     -1.109457    0.789848   -0.734245
H     -0.148540   -1.691282    0.868354
H     -0.681497   -2.801465   -0.952817
H     -2.720710    0.984576    1.227453
H     -2.240802   -0.674009    1.723623
H     -4.173077   -0.738778    0.399126
H     -3.497743    0.192285   -0.819726
H      0.802420    1.803744   -1.290691
H      3.064159    0.964497   -1.249965
H      3.745071    1.058224    0.289882
