29

C     -1.376481   -2.355716   -1.235965
C     -1.218533   -1.410401   -0.072143
C     -1.700552   -1.786668    1.125140
C     -0.516122   -0.068413   -0.269864
C      0.593273    0.163621    0.791896
C      1.581433    1.288667    0.435353
C      2.395457    0.966698   -0.790457
O      2.149292    1.532216   -1.844885
C      3.488030   -0.058988   -0.745826
C     -1.533113    1.093559   -0.390349
C     -2.299105    1.379354    0.871644
O     -3.400271    0.805273    1.080383
O     -1.808917    2.275842    1.816922
H     -2.453029   -2.577680   -1.395501
H     -0.837210   -3.303439   -1.025292
H     -0.972690   -1.924460   -2.175356
H     -2.194698   -2.746095    1.247391
H     -1.611282   -1.151165    1.999013
H     -0.004095   -0.116500   -1.254307
H      0.138400    0.399938    1.776255
H      1.169422   -0.778234    0.928274
H      2.275298    1.437192    1.290599
H      1.044110    2.249334    0.294887
H      3.245648   -0.889838   -1.441010
H      3.604627   -0.471747    0.278346
H      4.447964    0.406256   -1.052907
H     -1.013281    2.018888   -0.714571
H     -2.256588    0.852877   -1.200262
H     -0.936986    2.769627    1.672590
