28

C     -0.387197    1.939386    1.233804
C     -0.668616    0.993423    0.094175
C     -0.825589    1.499799   -1.140804
C     -0.833734   -0.498361    0.362781
C      0.152800   -1.365402   -0.462462
C      1.635249   -1.101138   -0.134221
C      2.216394    0.031213   -0.943746
O      2.218895   -0.039600   -2.163518
C      2.835591    1.227464   -0.284798
C     -2.300078   -0.912362    0.104774
C     -2.607024   -2.269899    0.661940
O     -2.705295   -3.263733   -0.105004
O     -2.759330   -2.440663    2.032114
H     -1.243658    2.634882    1.359681
H     -0.234972    1.397473    2.189962
H      0.526321    2.532368    1.022946
H     -1.056474    0.861161   -1.986742
H     -0.724678    2.566078   -1.320346
H     -0.623162   -0.691904    1.438230
H     -0.036309   -1.254425   -1.552135
H     -0.042063   -2.433140   -0.223369
H      1.759062   -0.921346    0.955413
H      2.219413   -2.015607   -0.375386
H      3.912984    1.277746   -0.546990
H      2.334746    2.150167   -0.644958
H      2.740825    1.176395    0.819852
H     -2.983386   -0.184032    0.594038
H     -2.520712   -0.895942   -0.985230
