28

C      3.077212   -2.031639    0.570477
C      1.816799   -1.485350    0.533358
N      1.878675   -0.273335   -0.051678
C      3.180745   -0.114640   -0.368611
N      3.942692   -1.168750    0.000366
C      0.797523    0.672040   -0.347884
C     -0.098434    0.155250   -1.479650
C     -1.506664    0.390600   -0.956576
C     -1.281013    1.189821    0.325515
O      0.007506    0.882866    0.798044
C     -2.319079    0.868095    1.409076
O     -3.613197    1.177778    0.966482
O     -2.301606    1.120173   -1.856650
O      0.139546    0.871300   -2.665149
N      0.627451   -2.117907    1.009550
H      3.350992   -2.997194    0.974498
H      3.578078    0.758999   -0.869333
H      1.241054    1.653756   -0.636221
H      0.047668   -0.936062   -1.659180
H     -1.985549   -0.590857   -0.724604
H     -1.323231    2.282591    0.107232
H     -2.084387    1.440327    2.335353
H     -2.276829   -0.211877    1.665729
H     -3.692786    2.167080    0.991881
H     -2.582205    0.482882   -2.564268
H      1.006616    0.543834   -3.021080
H      0.679023   -3.062093    1.452018
H     -0.306601   -1.667689    0.907783
