45

C      2.923437   -1.507133   -2.046104
C      2.573762   -0.381744   -1.061315
C      3.684945   -0.161169   -0.008501
C      3.264971    1.003305    0.911104
C      1.838973    0.768598    1.461745
C      0.869155    0.444267    0.304469
O      1.341137   -0.679664   -0.425755
O     -0.395283    0.135359    0.859738
C     -1.415030    0.149315   -0.131636
C     -2.474400   -0.953848    0.162485
O     -3.520806   -0.419446    0.951171
C     -4.348666    0.433632    0.172015
C     -3.531703    1.455066   -0.683260
C     -2.083287    1.551856   -0.177909
O     -2.093779    2.137046    1.101943
O     -3.521686    1.059824   -2.031824
O     -5.195983    1.129171    1.047808
C     -1.890516   -2.183225    0.871760
O     -0.872061   -2.749672    0.093700
O      1.395206    1.883375    2.194793
O      4.195983    1.199704    1.947450
O      3.869484   -1.333489    0.746463
O      2.863474   -2.762846   -1.420308
H      3.923857   -1.321125   -2.503903
H      2.180672   -1.498106   -2.872218
H      2.478641    0.543541   -1.678450
H      4.628297    0.116759   -0.536842
H      3.254957    1.930840    0.295984
H      1.856846   -0.106496    2.148605
H      0.790024    1.343847   -0.355539
H     -1.014398   -0.077554   -1.150466
H     -2.880758   -1.329866   -0.808538
H     -4.978706   -0.204141   -0.494440
H     -3.987573    2.471360   -0.611146
H     -1.513605    2.203008   -0.883697
H     -1.235843    2.625072    1.207451
H     -4.421051    1.268060   -2.397543
H     -5.949330    1.479256    0.503385
H     -2.700626   -2.932238    1.018564
H     -1.497214   -1.899818    1.874000
H     -0.516209   -3.512740    0.618859
H      1.370024    2.660193    1.576788
H      4.115531    0.440625    2.581770
H      4.820887   -1.350759    1.029315
H      3.798248   -3.067997   -1.285150
