45

C     -2.059930   -1.442837    0.908144
N     -2.609801   -0.156687    0.404785
C     -3.949574    0.067855    1.057281
C     -5.127034   -0.477892    0.233421
C     -5.212366    0.231426   -1.128473
C     -3.831934    0.660538   -1.655590
C     -2.727295   -0.244816   -1.091172
C     -1.713056    0.975969    0.816044
C     -0.263429    0.866169    0.368079
C      0.172011    1.515001   -0.799020
C      1.508680    1.436934   -1.198593
C      2.446191    0.731468   -0.424696
C      2.013705    0.098265    0.753787
C      0.676100    0.176123    1.151436
C      3.860136    0.648767   -0.863764
O      4.141870    0.833088   -2.079742
N      4.914127    0.383861    0.076859
C      6.281257    0.071133   -0.338506
C      6.405166   -1.398276   -0.738568
O      5.675121   -1.647199   -1.907252
H     -1.828615   -1.385780    1.995176
H     -1.133176   -1.728404    0.363521
H     -2.787021   -2.272707    0.765152
H     -4.151875    1.154072    1.209782
H     -3.988730   -0.378939    2.077478
H     -6.076894   -0.325945    0.790467
H     -4.999205   -1.571418    0.081970
H     -5.694138   -0.454677   -1.858801
H     -5.858528    1.131904   -1.039312
H     -3.630046    1.715001   -1.370022
H     -3.826477    0.608620   -2.765944
H     -2.971471   -1.285164   -1.411043
H     -1.772243   -0.016262   -1.601417
H     -1.718084    1.077679    1.926384
H     -2.120282    1.940879    0.438614
H     -0.525838    2.081538   -1.403414
H      1.811939    1.941949   -2.107395
H      2.699825   -0.474148    1.363540
H      0.373859   -0.305783    2.072346
H      4.735675    0.514126    1.097624
H      6.969765    0.260819    0.513495
H      6.594994    0.732138   -1.175403
H      7.478425   -1.633362   -0.914801
H      6.030500   -2.041112    0.089521
H      5.787694   -2.613911   -2.101142
