31

C     -3.045041    0.933949    0.821656
C     -2.704110    1.093300   -0.659861
C     -1.899132   -0.156097   -1.017077
C     -0.806382    0.095369   -2.015127
O     -1.015066    0.851680   -3.001689
N      0.448442   -0.587925   -1.900328
C      0.740663   -1.580980   -0.855455
C     -0.190917   -1.447948    0.328622
O      0.037715   -2.092867    1.387945
N     -1.347454   -0.610287    0.243423
C     -1.967351    0.019359    1.394771
C      2.216453   -1.463139   -0.422024
C      2.531654   -0.112810    0.158808
C      2.900224    1.014625   -0.540711
N      3.022565    2.046284    0.318118
C      2.718083    1.516973    1.522772
N      2.411061    0.208263    1.456235
H     -4.039996    0.447051    0.922549
H     -3.063348    1.916521    1.341230
H     -2.087419    2.011177   -0.788207
H     -3.622178    1.176756   -1.281039
H     -2.575640   -0.942931   -1.416469
H      1.133745   -0.476715   -2.682035
H      0.588743   -2.592623   -1.289414
H     -1.208562    0.615621    1.947203
H     -2.410535   -0.748311    2.065139
H      2.873117   -1.643129   -1.300801
H      2.457174   -2.250322    0.324955
H      3.058913    1.086784   -1.608483
H      2.714304    2.087300    2.442169
H      2.130274   -0.414925    2.245375
