21

C     -0.815311   -0.756240   -0.250734
C      0.490394   -0.547629   -1.035423
C      1.697452   -0.903713   -0.216913
O      1.993092   -2.115804   -0.037966
N      2.495669    0.120473    0.382487
O      3.565488   -0.200217    1.148700
C     -0.985863    0.220356    0.937551
C     -1.078210    1.653096    0.477862
O     -0.209566    2.484916    0.851109
O     -2.111798    2.080055   -0.353042
N     -2.174456   -0.115489    1.724109
H     -0.843249   -1.802281    0.126737
H     -1.669954   -0.645468   -0.952586
H      0.471201   -1.198248   -1.936340
H      0.563237    0.500568   -1.395963
H      2.244513    1.126098    0.254355
H      4.332390   -0.214250    0.520787
H     -0.101295    0.121689    1.605890
H     -2.834094    1.446897   -0.672788
H     -3.003024   -0.203930    1.091507
H     -2.026615   -1.050877    2.168743
