13

C      0.331060    1.227753    0.225496
C     -0.500540    0.153884   -0.502368
C      0.409660   -0.979074   -0.371331
O      0.311521   -2.077172   -0.979735
N      1.481405   -0.640845    0.467700
O      1.331464    0.594595    1.014766
N     -1.771919   -0.093533    0.181265
H      0.827242    1.887325   -0.519835
H     -0.309560    1.863024    0.874262
H     -0.670751    0.422650   -1.567986
H      2.424152   -1.071191    0.340957
H     -1.591452   -0.424872    1.158187
H     -2.272280   -0.862545   -0.321379
