12

C     -0.143001   -0.306958    0.557192
C     -1.107690    0.671625   -0.071893
O     -0.738009    1.839914   -0.367221
O     -2.438261    0.314323   -0.273428
C      1.292127    0.111759    0.381690
O      1.826288    0.091459   -0.760161
O      2.026769    0.542037    1.482339
O     -0.336496   -1.602344    0.047009
H     -0.365355   -0.335621    1.644985
H     -2.783721   -0.601225   -0.011898
H      2.991389    0.834363    1.381004
H     -0.224040   -1.559331   -0.939406
