18

C      0.232414    0.627397   -0.397473
C      1.705404    0.217151   -0.225846
C      1.901160   -1.264030   -0.334224
O      2.284673   -1.928108    0.664430
O      1.661575   -1.911730   -1.539678
C     -0.639723    0.343335    0.849625
C     -0.882235   -1.131932    1.035253
O     -1.452896   -1.804504    0.135728
O     -0.492606   -1.756006    2.213677
N     -1.922973    1.049073    0.748142
H      0.220288    1.722841   -0.588577
H     -0.202998    0.142392   -1.299162
H      2.096998    0.589544    0.746035
H      2.304626    0.698958   -1.027948
H     -0.105180    0.727068    1.748113
H     -1.758961    2.081534    0.711742
H     -2.439157    0.753739   -0.112990
H     -2.510410    0.843278    1.589300
