40

C      6.055860    1.825629   -0.818616
C      5.391168    1.166858   -1.856750
C      4.416439    0.206667   -1.567181
C      4.109607   -0.109250   -0.233276
C      4.769241    0.569361    0.804812
C      5.743343    1.528894    0.510970
C      3.035466   -1.109155    0.079283
O      1.781651   -0.437805    0.160391
C      0.560474   -1.069112    0.436776
C     -0.601609   -0.274488    0.483602
C     -1.817572   -0.898151    0.759732
C     -1.904645   -2.247766    0.976482
C     -0.780226   -3.068090    0.937646
C      0.463883   -2.470236    0.666781
N     -3.177462   -2.619751    1.198751
C     -3.916235   -1.489400    1.120998
C     -3.099391   -0.393679    0.859180
C     -3.545648    1.021134    0.633360
C     -3.695202    1.320012   -0.869840
C     -4.037390    2.768962   -1.103361
O     -3.242529    3.500735   -1.750363
O     -5.220278    3.319763   -0.614997
O     -4.655376    0.486645   -1.471118
H      6.808916    2.569537   -1.044374
H      5.628367    1.403075   -2.886037
H      3.901572   -0.289167   -2.380868
H      4.529276    0.356123    1.839205
H      6.253098    2.045292    1.314074
H      3.255928   -1.612532    1.046070
H      2.996324   -1.884372   -0.717070
H     -0.549716    0.792457    0.308052
H     -0.860130   -4.134071    1.107524
H      1.341544   -3.100810    0.635021
H     -3.530226   -3.585709    1.380258
H     -4.991985   -1.461552    1.236188
H     -4.509338    1.189123    1.160964
H     -2.796317    1.710988    1.078890
H     -2.717765    1.112802   -1.359704
H     -5.885814    2.769696   -0.086385
H     -5.507302    0.591343   -0.972517
