29

C      4.180776    0.184519   -1.003644
C      3.720020   -0.977678   -0.124339
C      2.516208   -0.614349    0.758510
C      1.221202   -0.445367   -0.049798
C      0.023156   -0.205395    0.876887
C     -1.269517   -0.026514    0.071704
C     -2.468462    0.217435    1.001150
C     -3.792844    0.343693    0.225088
C     -3.806952    1.585743   -0.617034
O     -3.731202    1.502224   -1.871281
O     -3.879298    2.836615   -0.015862
O     -4.866344    0.403789    1.126861
H      3.417357    0.422900   -1.772709
H      4.378451    1.085798   -0.385279
H      5.119287   -0.097897   -1.525561
H      3.476121   -1.854427   -0.762871
H      4.564588   -1.269047    0.537113
H      2.733194    0.317336    1.325948
H      2.374212   -1.433356    1.497409
H      1.039778   -1.361626   -0.653762
H      1.321392    0.420353   -0.738838
H      0.206433    0.707566    1.485627
H     -0.089432   -1.072324    1.564840
H     -1.150971    0.837352   -0.618081
H     -1.453966   -0.940511   -0.534798
H     -2.297305    1.136698    1.604314
H     -2.551472   -0.638865    1.706271
H     -3.917920   -0.544475   -0.439028
H     -5.016486   -0.520190    1.458496
