26

C      2.731985    0.207251    0.794994
C      1.344708   -0.246311    0.313201
C      0.620931    0.884198   -0.458051
C     -0.787567    0.417011   -0.872918
C     -1.548766   -0.155568    0.343489
C     -0.670019   -1.168546    1.127655
O      0.600447   -0.630519    1.459349
O     -0.549632   -2.430470    0.510249
N     -2.824589   -0.759798   -0.063597
O     -1.507722    1.471606   -1.463579
O      1.352820    1.224347   -1.608004
O      3.616707    0.346428   -0.286365
H      3.145579   -0.568369    1.474704
H      2.648608    1.150012    1.386467
H      1.506957   -1.119995   -0.357218
H      0.534296    1.768350    0.218319
H     -0.677188   -0.378425   -1.641613
H     -1.767803    0.687421    1.039130
H     -1.191976   -1.347249    2.091924
H     -0.393639   -2.301435   -0.458482
H     -3.307557   -1.166056    0.770455
H     -2.672830   -1.512595   -0.773315
H     -3.447445   -0.027204   -0.474620
H     -1.599119    2.193004   -0.787300
H      1.079528    2.144217   -1.862463
H      3.763284    1.318697   -0.422409
