28

C     -2.932936   -0.664053   -0.600292
C     -1.542275   -0.009668   -0.714292
C     -1.094644    0.647618    0.626969
C      0.334892    1.280929    0.634963
C      1.540825    0.346809    0.960467
C      1.761147   -0.825330   -0.031387
C      3.053710   -1.543050    0.257651
O      3.038911   -2.727237    0.686149
O      4.270923   -0.898836    0.070132
O      1.751066   -0.387500   -1.367349
O      1.404684   -0.149526    2.269839
O      0.564845    1.986069   -0.559163
O     -1.271052   -0.216188    1.723511
O     -1.577988    0.960181   -1.730849
O     -3.920197    0.295154   -0.326955
H     -2.932180   -1.470113    0.168964
H     -3.179672   -1.151045   -1.567750
H     -0.827255   -0.809781   -0.991772
H     -1.792895    1.498917    0.788667
H      0.312133    2.025759    1.467382
H      2.448101    0.997669    0.919741
H      0.942148   -1.561026    0.096981
H      2.473445    0.286388   -1.470688
H      2.318460   -0.310280    2.623518
H      1.270383    2.659880   -0.373370
H     -0.875337   -1.093930    1.486679
H     -1.542960    0.475279   -2.596842
H     -3.996282    0.356910    0.660766
