30

C     -3.409918    0.294611    0.216482
C     -1.914677    0.213098    0.561233
C     -1.183726    1.471764    0.054946
C      0.318036    1.423423    0.381056
C      0.986877    0.179234   -0.244263
C      0.325434   -1.117386    0.259295
C     -1.188448   -1.046093    0.024121
C     -1.797837   -1.975637   -0.965979
O     -1.826128   -2.238119    0.420979
C      2.488522    0.169612    0.009616
C      2.985406    0.124111    1.257784
C      3.451738    0.212361   -1.148609
H     -3.863288    1.178668    0.713532
H     -3.559737    0.397628   -0.879349
H     -3.942842   -0.608912    0.580912
H     -1.834209    0.193588    1.671148
H     -1.316044    1.569506   -1.045647
H     -1.622759    2.375039    0.532309
H      0.448176    1.423962    1.485191
H      0.799993    2.341665   -0.020130
H      0.811387    0.229274   -1.342245
H      0.775327   -1.990444   -0.263004
H      0.503052   -1.243609    1.349069
H     -1.121243   -2.685435   -1.485967
H     -2.817243   -1.771708   -1.347786
H      4.058059    0.117892    1.428118
H      2.334467    0.092471    2.125050
H      4.095553   -0.692532   -1.134479
H      4.093033    1.115707   -1.069788
H      2.923040    0.246261   -2.123594
