28

C      4.495177    0.516482    0.666362
C      3.038431    0.429110    0.319639
C      2.325307   -0.754037    0.556674
C      0.976795   -0.850482    0.200636
C      0.318340    0.235358   -0.407435
C      1.048738    1.408635   -0.669307
C      2.396620    1.503305   -0.311560
C     -1.112386    0.156630   -0.800043
O     -1.527671    0.884474   -1.743733
C     -2.088275   -0.785800   -0.116795
C     -2.321277   -2.015436   -0.995946
N     -3.382057   -0.134703    0.162065
C     -3.264596    0.878904    1.214320
H      4.778571    1.563339    0.906892
H      4.725514   -0.113304    1.552022
H      5.101255    0.165898   -0.194925
H      2.814740   -1.605593    1.013338
H      0.465410   -1.785900    0.380983
H      0.574584    2.258528   -1.144605
H      2.939079    2.415917   -0.526115
H     -1.662528   -1.145418    0.845580
H     -3.010373   -2.720108   -0.483624
H     -1.362108   -2.541692   -1.188491
H     -2.771039   -1.721117   -1.968653
H     -3.753396    0.323011   -0.703536
H     -2.586766    1.702539    0.901535
H     -2.889428    0.421151    2.154695
H     -4.266659    1.310311    1.420158
