37

C     -1.446873   -2.576563    3.291833
C     -1.115206   -1.944823    1.967578
C     -1.430522   -0.594726    1.689641
C     -1.167068   -0.059419    0.399971
C     -0.519626   -0.864605   -0.562381
C     -0.146975   -2.176128   -0.241790
C     -0.451447   -2.713282    1.004658
C     -0.169503   -0.313889   -1.924506
C      1.162219    0.443022   -1.873931
C      1.530451    1.003581   -3.255321
C      2.828591    1.820466   -3.222768
C      4.023678    0.952940   -2.971308
O      4.547444    0.910448   -1.827039
O      4.538804    0.166025   -3.993579
O     -1.514881    1.251710    0.018139
C     -2.317674    2.167651    0.753998
O     -2.004817    0.202983    2.683384
C     -1.245629    0.706880    3.777816
H     -0.581160   -2.477354    3.979058
H     -1.674198   -3.656314    3.162155
H     -2.341414   -2.104012    3.749057
H      0.371969   -2.791509   -0.966628
H     -0.171437   -3.737751    1.218442
H     -0.977097    0.361457   -2.281896
H     -0.096670   -1.142972   -2.662854
H      1.083415    1.280564   -1.146168
H      1.959667   -0.250566   -1.528261
H      0.710923    1.668820   -3.605404
H      1.629332    0.172373   -3.988197
H      2.960384    2.323816   -4.204472
H      2.760711    2.614736   -2.447288
H     -3.285785    1.699058    1.029893
H     -2.528417    3.049830    0.115663
H     -1.773351    2.521009    1.652843
H     -0.376956    1.287626    3.401635
H     -0.883399   -0.118914    4.421465
H     -1.887483    1.375878    4.386558
