48

C      6.798521    1.183778   -1.549267
C      5.746641    1.375827   -0.459987
C      5.067042    0.043766   -0.108679
C      4.103568    0.163913    1.083125
C      2.805002    0.904285    0.721349
C      1.856837    1.068619    1.923207
C      1.326866   -0.248111    2.526990
C      0.602614   -1.176328    1.535448
C     -0.622730   -0.516246    0.886007
C     -1.438253   -1.540033    0.082224
C     -2.550233   -0.887625   -0.753962
C     -3.665831   -0.285459    0.109388
C     -4.786724    0.203138   -0.757677
O     -4.758070    1.383386   -1.200396
N     -5.857384   -0.681017   -1.117898
C     -6.899447   -0.303459   -2.068330
C     -6.386135   -0.434391   -3.469614
O     -6.331618   -1.570290   -4.011027
O     -5.921682    0.678158   -4.165346
H      7.595111    0.491889   -1.200756
H      6.330916    0.771590   -2.468965
H      7.261129    2.162492   -1.794771
H      4.994716    2.106017   -0.827402
H      6.238947    1.798363    0.443131
H      4.523632   -0.350681   -0.995434
H      5.852930   -0.696404    0.160708
H      3.852909   -0.866687    1.410644
H      4.611576    0.674698    1.929730
H      3.053623    1.924565    0.361620
H      2.287009    0.384635   -0.111954
H      0.997226    1.701361    1.615397
H      2.387017    1.630803    2.722565
H      2.165702   -0.806114    2.993862
H      0.626001    0.005794    3.352160
H      0.270872   -2.076012    2.098597
H      1.307603   -1.526353    0.751904
H     -1.260730   -0.076411    1.681615
H     -0.287675    0.295364    0.205385
H     -1.879522   -2.294290    0.769881
H     -0.757818   -2.076810   -0.614836
H     -2.114580   -0.101474   -1.409382
H     -2.987522   -1.670354   -1.412851
H     -3.273836    0.567848    0.701989
H     -4.052567   -1.049130    0.818320
H     -5.873535   -1.647170   -0.720554
H     -7.774681   -0.976387   -1.939241
H     -7.243785    0.734135   -1.871287
H     -5.939651    1.602817   -3.751997
