35

C      4.283501    1.965588   -1.487970
O      3.370719    0.912252   -1.205179
C      3.483465    0.101315   -0.071118
O      4.442069    0.257887    0.734266
C      2.497924   -0.977083    0.158221
C      2.985794   -2.291204    0.323519
C      2.097926   -3.365399    0.428120
C      0.725975   -3.153930    0.353986
C      0.216361   -1.863225    0.210235
C      1.086788   -0.748778    0.132997
C      0.490986    0.538375    0.084693
O      1.202742    1.565283    0.236222
C     -0.913869    0.663736   -0.047101
C     -1.596269    1.905359   -0.213184
C     -2.995584    1.936034   -0.188258
C     -3.742895    0.757549   -0.089089
C     -3.079636   -0.467730    0.021390
C     -1.683718   -0.521626    0.042131
O     -1.098269   -1.703690    0.166647
C     -5.243238    0.812494   -0.052122
O     -5.668615    0.945852    1.274688
O     -0.947248    3.122068   -0.442280
O      4.360527   -2.531485    0.359549
H      4.265975    2.713615   -0.667219
H      5.310220    1.558305   -1.603646
H      3.984648    2.462500   -2.433581
H      2.474246   -4.373436    0.548383
H      0.051595   -3.998655    0.421822
H     -3.504054    2.888152   -0.284348
H     -3.648553   -1.386040    0.108221
H     -5.608468    1.674603   -0.654523
H     -5.670139   -0.115842   -0.494288
H     -6.660107    0.977185    1.244069
H     -0.006177    3.206552   -0.798145
H      4.735378   -3.466581    0.469488
