35

C     -3.231479   -0.911085   -0.556828
C     -1.926438   -1.581508   -1.019680
C     -0.876372   -1.589177    0.052670
O     -1.022851   -2.339308    1.055887
N      0.274230   -0.737058   -0.053317
C      1.276558   -0.646076    1.016175
C      2.224256    0.555106    0.805620
C      3.153686    0.415984   -0.412049
C      3.950607    1.667484   -0.602252
O      5.066632    1.799006   -0.032009
O      3.436784    2.705003   -1.373786
C      2.041410   -1.935356    1.151888
O      2.267689   -2.655540    0.141816
O      2.539684   -2.311288    2.395218
C     -3.138669    0.630249   -0.462885
C     -2.334103    1.065741    0.736432
O     -2.659347    0.678014    1.890148
O     -1.249700    1.926604    0.590293
N     -4.482628    1.202762   -0.368023
H     -4.010207   -1.170650   -1.307155
H     -3.567849   -1.344920    0.410841
H     -2.146850   -2.635887   -1.293749
H     -1.545436   -1.082684   -1.936742
H      0.334072   -0.096483   -0.876448
H      0.739182   -0.466380    1.973795
H      1.608192    1.475089    0.696378
H      2.846628    0.682744    1.719246
H      2.567331    0.224566   -1.334508
H      3.851269   -0.436371   -0.265201
H      3.956141    3.565683   -1.498863
H      3.070748   -3.166892    2.504836
H     -2.655076    1.014878   -1.389500
H     -0.963153    2.266062   -0.319870
H     -4.998668    0.986246   -1.252014
H     -4.396277    2.245441   -0.339303
