44

C     -4.183120    0.989437    1.734341
C     -2.809872    0.492177    1.280348
C     -2.428010    0.990462   -0.137721
C     -3.319069    0.343425   -1.212809
C     -0.928177    0.750914   -0.466180
C     -0.030691    1.624306    0.378993
O      0.470373    1.187325    1.449369
O      0.221153    2.941004    0.003829
N     -0.566762   -0.665422   -0.314060
C     -0.413305   -1.557495   -1.429349
O     -0.649481   -1.158648   -2.602805
C      0.098324   -2.958349   -1.209036
C      1.600848   -3.034079   -1.529613
N      2.365920   -2.162863   -0.636292
C      2.721328   -0.816504   -0.984262
O      2.556054   -0.403029   -2.165033
C      3.264267    0.083805    0.049985
C      3.521705    1.375469   -0.190937
C      4.029496    2.285525    0.852434
O      4.263674    1.863326    2.017199
N      4.256867    3.660848    0.546502
N     -0.641639   -3.897336   -2.053672
H     -4.991006    0.521549    1.135107
H     -4.246350    2.094768    1.645780
H     -4.342338    0.712290    2.797843
H     -2.067795    0.858538    2.019977
H     -2.799685   -0.618893    1.315779
H     -2.606173    2.088802   -0.183979
H     -4.373752    0.665855   -1.093606
H     -2.993951    0.658428   -2.227168
H     -3.272721   -0.764685   -1.150475
H     -0.748760    1.064409   -1.518202
H     -0.180297    3.333091   -0.839425
H     -0.458644   -1.057361    0.648866
H     -0.051704   -3.242957   -0.142572
H      1.953349   -4.078543   -1.387502
H      1.784804   -2.768918   -2.593899
H      2.518117   -2.486518    0.345772
H      3.429821   -0.323195    1.040127
H      3.340837    1.787043   -1.176591
H      4.615335    4.311199    1.280564
H      4.065934    4.034886   -0.409569
H     -0.323263   -4.867656   -1.826289
H     -1.651639   -3.856430   -1.782572
