41

C      4.777641   -1.739094    1.288686
N      3.347132   -1.435674    1.231430
C      2.667159   -2.360314    0.315561
C      1.191267   -1.978062    0.164690
C      1.024336   -0.618603   -0.468991
C     -0.166104    0.006438   -0.577850
C     -0.231312    1.386141   -1.133384
C      0.448081    1.633241   -2.344735
C      0.433563    2.895244   -2.934471
C     -0.265806    3.935696   -2.334505
C     -0.954357    3.718388   -1.142582
C     -0.948742    2.458154   -0.512393
C     -1.776797    2.362718    0.765447
C     -1.522431    1.158375    1.674521
C     -2.058570   -0.090902    1.034988
C     -3.241940   -0.687548    1.501373
C     -3.758845   -1.817522    0.861557
C     -3.108159   -2.349232   -0.254169
C     -1.937443   -1.754032   -0.730760
C     -1.405566   -0.626633   -0.084742
H      5.271063   -1.049466    2.005630
H      5.244350   -1.588198    0.291483
H      4.949035   -2.784314    1.629305
H      2.957049   -1.582482    2.192236
H      2.727770   -3.400788    0.707941
H      3.149384   -2.337830   -0.687953
H      0.695355   -2.740898   -0.471704
H      0.708668   -1.988436    1.166509
H      1.918989   -0.101024   -0.797998
H      0.982723    0.836916   -2.848527
H      0.960398    3.063962   -3.864885
H     -0.281906    4.913741   -2.798039
H     -1.501992    4.545371   -0.705991
H     -1.579632    3.271406    1.376486
H     -2.854640    2.392228    0.491723
H     -0.435933    1.057138    1.888199
H     -2.024430    1.333582    2.651343
H     -3.766825   -0.276149    2.354486
H     -4.669295   -2.275872    1.225490
H     -3.514264   -3.219494   -0.753281
H     -1.448972   -2.166171   -1.605075
