28

C     -3.618183    0.026303    0.071733
C     -2.125753   -0.214348   -0.155932
C     -1.421050    1.080228   -0.630610
C      0.105370    1.027992   -0.339843
C      0.601680   -0.427872   -0.205662
C     -0.246832   -1.211630    0.833930
O     -1.545073   -0.667563    1.051413
O     -0.349356   -2.556629    0.445963
O      1.978497   -0.461479    0.177372
C      3.031442   -0.150606   -0.690342
O      2.814373    0.104271   -1.906088
C      4.432461   -0.180306   -0.182255
O      0.432713    1.777895    0.806329
O     -1.644866    1.236792   -2.009180
H     -4.108977   -0.923342    0.373345
H     -3.773806    0.776457    0.876476
H     -4.097077    0.389354   -0.862606
H     -2.042819   -1.001171   -0.943896
H     -1.856294    1.953436   -0.087297
H      0.644608    1.496836   -1.191259
H      0.488364   -0.924101   -1.197206
H      0.288440   -1.165730    1.809901
H     -0.782395   -3.035013    1.200315
H      4.882460   -1.171832   -0.396425
H      4.441431   -0.004847    0.913909
H      5.034587    0.610989   -0.676657
H     -0.096675    1.425893    1.567842
H     -1.467269    2.190023   -2.223451
