21

C     -3.348832    0.177768    1.359806
C     -4.599020    0.470989    0.847209
O     -4.478884    0.683923   -0.447008
C     -3.208247    0.535938   -0.742073
O     -2.755928    0.624689   -1.913632
N     -2.468710    0.238109    0.347634
N     -1.096375   -0.061756    0.452982
C     -0.198994    0.301448   -0.412061
C      1.206389   -0.072858   -0.223422
C      1.721681   -0.831048    0.814999
C      3.077344   -0.924053    0.577553
C      3.293569   -0.215969   -0.589280
O      2.167510    0.279927   -1.045831
N      4.557239   -0.033131   -1.231579
O      5.593922   -0.531041   -0.746743
O      4.635335    0.697042   -2.393932
H     -3.104560   -0.061744    2.386552
H     -5.528399    0.515810    1.398840
H     -0.454421    0.912885   -1.264799
H      1.178268   -1.264228    1.644540
H      3.811111   -1.442700    1.180243
