49

C     -0.765059   -2.450651    2.323239
C     -0.184465   -1.259119    1.530015
C     -1.300315   -0.432066    0.832991
C     -1.239977    0.973350    0.987078
C     -2.260742    1.804614    0.508530
C     -3.352586    1.258532   -0.162726
C     -3.394162   -0.123358   -0.396649
C     -2.354905   -0.974660    0.031846
C     -2.448016   -2.439049   -0.342229
O     -3.100172   -2.606418   -1.573040
O     -4.371289    2.123567   -0.594453
C     -5.540828    1.711366   -1.294561
O     -2.203077    3.186674    0.696023
O     -0.142233    1.549040    1.624165
C      0.976548    0.754681    1.983831
O      0.497577   -0.477601    2.504252
C      1.878175    0.547599    0.750698
C      2.648699    1.596195    0.191554
C      3.506703    1.332543   -0.904041
C      3.515783    0.066452   -1.502570
C      2.664933   -0.937180   -1.016765
C      1.836964   -0.694111    0.085575
C      0.862174   -1.702241    0.533989
O      0.922811   -2.890146    0.112382
O      4.378488   -0.150385   -2.589524
C      4.495156   -1.380840   -3.296894
O      4.369761    2.301552   -1.423316
O      2.516732    2.886254    0.709991
C      1.728875    1.443591    3.132218
H     -1.039154   -3.316731    1.694328
H     -1.656714   -2.128157    2.902537
H     -0.008942   -2.826583    3.046484
H     -4.237001   -0.541376   -0.929444
H     -1.439607   -2.873964   -0.448717
H     -3.011835   -2.975614    0.452542
H     -3.175576   -3.585727   -1.716939
H     -6.127160    1.001125   -0.674076
H     -5.261512    1.237857   -2.259437
H     -6.169272    2.600790   -1.505025
H     -1.433345    3.636158    1.177244
H      2.630839   -1.902757   -1.502811
H      4.820947   -2.188388   -2.607695
H      5.255644   -1.268298   -4.096460
H      3.523872   -1.645432   -3.765693
H      4.527353    3.204737   -0.999777
H      2.931616    3.709522    0.298040
H      2.731644    0.985665    3.271759
H      1.836969    2.533455    2.966557
H      1.159683    1.325531    4.079426
