22

C      0.659348   -0.254431   -1.171856
C      2.053001   -0.329327   -1.253780
C      2.847433    0.193574   -0.228892
C      2.241322    0.791467    0.883908
C      0.847767    0.867905    0.968819
C      0.043832    0.355151   -0.063644
C     -1.464739    0.413863    0.045289
C     -2.019026   -0.959852    0.444210
N     -3.457904   -0.881065    0.681088
O     -2.025017    0.812943   -1.179518
O      4.234798    0.112114   -0.324071
H      0.060030   -0.672696   -1.970968
H      2.516069   -0.797106   -2.113319
H      2.848618    1.194264    1.684492
H      0.397004    1.326113    1.840361
H     -1.759578    1.144194    0.835664
H     -1.518792   -1.297162    1.379429
H     -1.807468   -1.708384   -0.352714
H     -3.767891   -1.803280    1.064497
H     -3.937749   -0.770291   -0.241726
H     -1.828879    1.781205   -1.280989
H      4.837823    0.480799    0.402099
