16

C      0.045260    0.384021    0.133819
C      1.304323   -0.439361    0.428757
C      2.460524    0.461335    0.728609
O      2.687315    0.829027    1.911338
O      3.258959    0.935142   -0.304661
C     -1.169699   -0.519181   -0.152310
C     -2.412393    0.306727   -0.337969
O     -3.351887    0.233672    0.497371
O     -2.526706    1.166925   -1.423636
O     -0.953254   -1.330534   -1.280321
H      0.233474    1.050019   -0.737833
H     -0.180947    1.025516    1.014988
H      1.123880   -1.109237    1.297846
H      1.559480   -1.071176   -0.449106
H     -1.321237   -1.188177    0.723622
H     -0.757092   -0.734718   -2.050515
