41

C      4.886612    1.338232    0.717916
C      4.211782    0.315122   -0.205454
C      5.252414   -0.717330   -0.666081
N      3.102592   -0.350323    0.508344
C      1.848050    0.411882    0.397214
C      0.857869    0.007735    1.506762
C      0.422816   -1.470742    1.446973
C     -0.451156   -1.761859    0.219482
C     -1.569737   -0.759388    0.071032
C     -2.686290   -1.079051   -0.711561
C     -3.724441   -0.151985   -0.904683
C     -3.652880    1.114198   -0.270972
C     -2.512922    1.438595    0.484468
C     -1.471469    0.518439    0.650324
N     -0.323389    0.869365    1.439853
N     -4.715215    2.078268   -0.384066
O     -4.455885    3.299527   -0.374500
O     -6.030079    1.681392   -0.307315
C     -4.882156   -0.544733   -1.785817
O     -5.895526   -1.108398   -1.001372
H      5.740477    1.822537    0.197553
H      5.261163    0.840810    1.638312
H      4.175224    2.136374    1.012420
H      3.839419    0.840193   -1.115729
H      6.100743   -0.211720   -1.175282
H      5.641500   -1.291847    0.201996
H      4.794245   -1.425637   -1.388845
H      2.926500   -1.282700    0.065178
H      2.040988    1.501156    0.507818
H      1.394514    0.264428   -0.608104
H      1.358276    0.175601    2.486337
H     -0.167128   -1.700104    2.361879
H      1.302228   -2.147902    1.455981
H     -0.874578   -2.784569    0.324518
H      0.171754   -1.750454   -0.699805
H     -2.741514   -2.054193   -1.181894
H     -2.442488    2.407976    0.962398
H     -0.281372    1.805600    1.903124
H     -5.266218    0.339099   -2.341248
H     -4.549445   -1.283424   -2.549670
H     -6.635279   -1.330167   -1.624667
