44

C      3.843829    0.848772   -0.059360
C      5.028514   -0.097333   -0.412375
N      4.463871   -1.445647   -0.457541
C      3.081449   -1.365597   -0.185555
C      2.184732   -2.428483   -0.140361
C      0.836892   -2.159510    0.152454
C      0.405506   -0.826281    0.383409
C      1.356668    0.223801    0.337716
C      2.685260   -0.082493    0.047537
O     -0.955953   -0.594375    0.655759
C     -1.563003    0.684666    0.873854
C     -1.699263    1.495245   -0.439424
C     -2.801230    0.932626   -1.348359
C     -4.101654    0.673650   -0.559676
C     -3.838237   -0.050839    0.783735
O     -2.800867    0.543211    1.556552
C     -3.675747   -1.580128    0.647055
O     -4.898052   -2.178722    0.306322
O     -4.754714    1.890898   -0.299676
O     -2.346187   -0.251968   -1.951365
O     -1.913501    2.862095   -0.177753
O     -0.056177   -3.228144    0.215522
C      6.125016   -0.024559    0.609478
O      5.955122   -0.509091    1.761013
O      7.322102    0.609949    0.293708
H      3.990848    1.383270    0.904812
H      3.667861    1.581857   -0.875717
H      5.432858    0.160106   -1.415750
H      4.987083   -2.318237   -0.694034
H      2.521519   -3.441278   -0.321242
H      1.087285    1.254127    0.517958
H     -0.908197    1.260896    1.561357
H     -0.743764    1.430247   -1.000899
H     -3.001730    1.682256   -2.150312
H     -4.778892    0.037558   -1.177459
H     -4.763445    0.085161    1.386842
H     -2.945451   -1.832161   -0.143364
H     -3.296054   -2.006471    1.603869
H     -5.431183   -2.236916    1.141861
H     -5.174218    2.183496   -1.150940
H     -2.944882   -0.432511   -2.722656
H     -2.622261    2.942345    0.511165
H     -1.030577   -3.104833    0.457073
H      8.068825    0.678897    0.974766
