16

C     -0.903245   -0.001109    0.238913
C     -1.249975    1.326673   -0.375248
O     -1.029009    1.540868   -1.596697
O     -1.843181    2.315990    0.398637
N     -1.813622   -1.039432   -0.254078
N      0.486136   -0.352321   -0.073431
C      1.599640    0.327026    0.522742
O      1.410194    1.258699    1.350461
N      2.932412   -0.050563    0.181046
H     -1.016366    0.069409    1.344475
H     -1.575042   -1.953824    0.194283
H     -1.733747   -1.136366   -1.293006
H     -2.799777   -0.794933   -0.004191
H      0.680745   -1.130885   -0.743317
H      3.746907    0.440318    0.612244
H      3.107932   -0.819551   -0.502832
