12

C     -0.607894    1.085952   -0.140810
C     -1.555223    0.138463   -0.162107
N     -1.298190   -1.246992    0.083377
C      0.842240    0.844161   -0.029179
O      1.590578    1.787759    0.341558
O      1.403493   -0.380688   -0.394579
O      2.724246   -0.598268   -0.303765
H     -0.928692    2.116857   -0.232159
H     -2.580683    0.444220   -0.329745
H     -0.430034   -1.581270    0.553727
H     -2.069559   -1.936602   -0.053850
H      2.909719   -0.673593    0.667532
