12

C     -1.056297   -0.774665   -0.298759
C      0.154889    0.162137   -0.338243
C     -0.133683    1.450355    0.383429
O     -0.429045    1.453314    1.568810
C      1.374113   -0.501735    0.237498
O      1.355076   -0.978925    1.403706
O      2.541199   -0.576054   -0.512523
H     -1.315099   -1.047091    0.747323
H     -0.836836   -1.704126   -0.866715
H     -1.934572   -0.280356   -0.766659
H      0.359822    0.405450   -1.403940
H     -0.079568    2.391695   -0.153927
