22

C     -0.840522   -0.871114    0.773113
C      0.683101   -0.656624    0.825558
C      0.990057    0.856560    0.606893
O      0.033067    1.552686   -0.190519
C     -0.524500    0.732280   -1.202540
C     -1.414213   -0.372961   -0.576033
O     -2.741375    0.063497   -0.407866
O     -1.288617    1.522554   -2.073364
C      2.386047    1.093168    0.096865
O      3.371066    0.931105    0.864545
O      2.604068    1.457791   -1.226321
O      1.317433   -1.442932   -0.155327
O     -1.157870   -2.227930    0.949791
H     -1.295333   -0.278273    1.602484
H      1.060774   -0.946369    1.835313
H      0.942581    1.330631    1.612057
H      0.285622    0.250101   -1.800504
H     -1.431713   -1.222863   -1.293988
H     -2.718598    0.881589    0.155049
H     -0.655747    2.148848   -2.512545
H      1.388062   -2.362759    0.211320
H     -0.993390   -2.438986    1.906020
