26

C     -1.883949    1.122975    1.581013
C     -1.654546   -0.302519    1.055557
C     -0.681675   -0.343753   -0.144773
C      0.764845   -0.012617    0.254304
N      1.670317   -0.163255   -0.890228
C      2.958240    0.049997   -0.827871
N      3.759991   -0.123305   -2.000409
N      3.596759    0.456348    0.391420
C     -2.971371   -0.964726    0.706478
O     -3.316486   -1.996321    1.343433
C     -3.869740   -0.457166   -0.349061
O     -3.574862    0.569037   -1.015655
O     -5.061994   -1.119023   -0.615471
H     -0.960709    1.512132    2.058140
H     -2.683245    1.122973    2.352998
H     -2.176407    1.813279    0.762628
H     -1.197785   -0.887254    1.886162
H     -1.009670    0.366053   -0.934369
H     -0.694152   -1.367744   -0.580682
H      1.083395   -0.701452    1.067406
H      0.814493    1.035642    0.618654
H      1.262567   -0.456192   -1.808167
H      3.333782   -0.418008   -2.907161
H      4.789942    0.043651   -1.965526
H      3.074238    0.603525    1.282042
H      4.628024    0.617723    0.407618
