49

C      5.135767    0.108647   -2.788539
C      5.128989   -0.523627   -1.397125
C      3.871735   -0.166994   -0.589588
C      3.829962    1.318477   -0.188840
C      2.724564    1.620244    0.834694
C      1.317464    1.533202    0.223488
C      0.260702    1.891487    1.236490
C     -0.163754    1.081600    2.225169
C      0.378291   -0.300802    2.509354
C     -0.751430   -1.321852    2.727280
C     -1.289161   -1.937407    1.423165
C     -2.075691   -0.937267    0.564125
C     -2.788697   -1.649049   -0.595304
C     -3.403296   -0.668426   -1.609766
C     -4.576131    0.149323   -1.041701
C     -5.127270    1.056937   -2.108120
O     -4.853455    2.285879   -2.087688
O     -5.910373    0.550427   -3.142269
O     -5.585228   -0.713494   -0.585201
H      4.206592   -0.151933   -3.338674
H      6.005545   -0.273752   -3.363202
H      5.227419    1.212144   -2.717300
H      6.041047   -0.214044   -0.842416
H      5.167691   -1.627923   -1.516253
H      2.970507   -0.431680   -1.182536
H      3.867426   -0.792160    0.330038
H      4.804372    1.597284    0.268674
H      3.683094    1.954883   -1.087689
H      2.822762    0.932487    1.701219
H      2.879629    2.653579    1.216229
H      1.250531    2.257837   -0.616690
H      1.111599    0.527970   -0.197622
H     -0.214068    2.863672    1.138645
H     -0.922603    1.468198    2.899698
H      0.974247   -0.232248    3.444405
H      1.062236   -0.671908    1.720026
H     -0.341037   -2.153692    3.340382
H     -1.583295   -0.875716    3.315701
H     -0.447600   -2.360764    0.831700
H     -1.961162   -2.779853    1.699077
H     -1.377144   -0.184271    0.145111
H     -2.825039   -0.421947    1.201762
H     -2.050204   -2.279050   -1.138449
H     -3.574701   -2.326495   -0.196267
H     -2.611546    0.020914   -1.978485
H     -3.761238   -1.257931   -2.482605
H     -4.206229    0.776275   -0.198461
H     -6.134509   -0.435666   -3.198458
H     -6.187310   -0.171516   -0.010896
