30

C      2.030245   -2.494526   -0.356786
C      1.605579   -1.786501    0.927104
N      1.113934   -0.424424    0.634499
C      2.013690    0.600857    0.751966
C      1.654590    1.932846    0.508262
C      0.333536    2.220863    0.131651
O     -0.012855    3.414278   -0.093737
C     -0.596652    1.179236   -0.015796
C     -1.928147    1.455119   -0.415139
C     -2.802819    0.390312   -0.567738
C     -2.421432   -0.887720   -0.349633
C     -1.131962   -1.218770    0.045793
C     -0.182707   -0.172398    0.230749
O     -3.488993   -1.733390   -0.583698
C     -4.612656   -0.931736   -0.972125
O     -4.130514    0.418430   -0.949200
C      2.664770    3.010897    0.669345
O      2.308739    4.159140    1.045670
O      4.015455    2.783349    0.409442
H      2.392835   -3.516167   -0.117084
H      1.177440   -2.575041   -1.062004
H      2.851035   -1.929198   -0.846840
H      0.845685   -2.381325    1.474362
H      2.480869   -1.753067    1.613881
H      3.027032    0.386127    1.070465
H     -2.274993    2.462769   -0.607328
H     -0.898919   -2.262936    0.185177
H     -5.441526   -1.055147   -0.243941
H     -4.941716   -1.203906   -1.996891
H      4.350457    1.912029    0.017888
