17

C      1.727483   -1.375813    0.633844
C      2.331705   -0.239474    0.101435
C      1.548732    0.827992   -0.339320
C      0.145271    0.774792   -0.255017
C     -0.473310   -0.404092    0.247041
C      0.336718   -1.459695    0.706186
C     -1.941058   -0.601688    0.241787
O     -2.489827   -1.283968    1.148960
O     -2.719483   -0.087940   -0.791815
C     -0.617969    1.986942   -0.632298
O     -1.679428    2.294356   -0.028305
O     -0.131833    2.837980   -1.618080
H      2.337716   -2.200190    0.979793
H      3.410817   -0.179484    0.041520
H      2.045133    1.712959   -0.718650
H     -0.109076   -2.367820    1.093815
H     -3.721590   -0.234856   -0.810897
