36

C      4.847725   -0.390534    0.952490
C      3.419281   -0.142354    0.565928
C      2.421525   -0.099710    1.540322
C      1.076544    0.096501    1.190166
C      0.690433    0.233774   -0.173918
C      1.731127    0.176916   -1.140799
C      3.063853   -0.016048   -0.775693
C     -0.795456    0.436596   -0.601960
C     -1.413276    1.725294   -0.019106
C     -2.920061    1.456954    0.045048
C     -3.093066   -0.063733    0.088014
C     -1.724850   -0.714796   -0.105944
C     -2.429128   -0.729044    1.270923
C     -1.761793   -2.045509   -0.878555
C     -0.947060    0.539772   -2.153410
O      0.140804    0.158938    2.214798
H      5.063169    0.039951    1.953685
H      5.539920    0.079482    0.221672
H      5.037983   -1.483759    0.979765
H      2.689710   -0.214345    2.583868
H      1.547822    0.278031   -2.198216
H      3.822492   -0.065004   -1.547643
H     -1.193644    2.625721   -0.634412
H     -1.040803    1.934696    1.004222
H     -3.376931    1.934745    0.938452
H     -3.416831    1.853340   -0.866168
H     -3.971752   -0.573739   -0.362893
H     -2.952440   -1.665451    1.557322
H     -2.187433    0.012590    2.056205
H     -0.723426   -2.391894   -1.062265
H     -2.291321   -2.841151   -0.313502
H     -2.276521   -1.915758   -1.853732
H     -0.555528   -0.366217   -2.662353
H     -0.410957    1.430311   -2.547373
H     -2.011671    0.640374   -2.454590
H      0.401560    0.065062    3.189651
