46

C      4.658781   -0.409855   -3.278636
O      4.437518   -0.443026   -1.872390
C      3.419553    0.262062   -1.210861
C      3.316358    0.133725    0.182948
C      2.303034    0.827120    0.873121
C      1.387244    1.634018    0.179362
C      1.509552    1.769002   -1.210700
C      2.511467    1.086177   -1.901665
C      0.303246    2.370839    0.927452
C     -0.582641    1.416871    1.693495
N     -0.408578    1.341271    3.042104
C     -1.124891    0.497052    3.825985
C     -2.077626   -0.344461    3.259453
C     -2.292047   -0.311766    1.876272
C     -3.243057   -1.160482    1.292980
C     -3.462276   -1.142677   -0.095898
C     -2.726689   -0.265035   -0.903613
C     -1.777693    0.594849   -0.319548
C     -1.543578    0.577995    1.068925
O     -2.966655   -0.277635   -2.287503
C     -2.281278    0.535109   -3.235372
O     -4.402976   -1.983352   -0.712617
C     -5.220414   -2.924334   -0.024082
O      4.238201   -0.691890    0.846188
C      4.248764   -0.923915    2.251119
H      5.523913   -1.058941   -3.524727
H      4.888009    0.626609   -3.604805
H      3.764312   -0.791226   -3.815039
H      2.216319    0.741712    1.947902
H      0.826661    2.401333   -1.764445
H      2.571940    1.206984   -2.974531
H     -0.314905    2.996051    0.247990
H      0.788233    3.078414    1.634752
H     -0.949732    0.476746    4.893291
H     -2.639894   -1.016802    3.896676
H     -3.806959   -1.835183    1.924300
H     -1.230869    1.272742   -0.952473
H     -1.192045    0.319091   -3.207679
H     -2.464293    1.609219   -3.020964
H     -2.662688    0.306562   -4.251504
H     -4.586177   -3.676131    0.491434
H     -5.866228   -3.448427   -0.757957
H     -5.869090   -2.401594    0.710198
H      3.290943   -1.387599    2.568872
H      5.078144   -1.617972    2.497509
H      4.411088    0.030750    2.794678
