17

C     -2.330764    0.117321   -0.778368
C     -1.090391   -0.633561   -0.297915
C      0.120350    0.306159   -0.133597
C      1.329103   -0.454076    0.442339
C      2.482318    0.470692    0.680658
O      3.375592    0.609448   -0.195862
O      2.546767    1.213565    1.852672
O      0.451708    0.914478   -1.358738
H     -2.153021    0.561248   -1.780705
H     -3.185574   -0.587544   -0.852095
H     -2.596454    0.922983   -0.061276
H     -1.325500   -1.109151    0.679376
H     -0.850237   -1.441080   -1.023715
H     -0.158823    1.107334    0.586505
H      1.048615   -0.924849    1.409501
H      1.638148   -1.265757   -0.252524
H      0.698162    0.192790   -1.995052
