30

C      3.195156    0.418996    1.959433
N      4.164512    0.560044    0.998429
C      3.887826    0.366691   -0.326108
C      2.586177    0.017598   -0.667553
C      1.649256   -0.119425    0.298020
N      1.917580    0.077828    1.611576
N      0.475705   -0.442868   -0.257935
C      0.746166   -0.472338   -1.589654
N      2.047760   -0.198397   -1.882684
C     -0.821727   -0.589048    0.403687
C     -1.555503    0.740926    0.447191
C     -3.006165    0.313401    0.436301
C     -2.957373   -1.060456   -0.249835
O     -1.621137   -1.520640   -0.291269
C     -3.499859   -0.989300   -1.647840
O     -2.829017   -0.445789   -2.564973
O     -4.766179   -1.487295   -1.927394
O     -3.541599    0.216326    1.736998
O     -1.215235    1.467989    1.599143
N      4.907421    0.526938   -1.312442
H      3.442962    0.580798    2.999379
H      0.001955   -0.677293   -2.347894
H     -0.665893   -0.973764    1.437502
H     -1.330566    1.332599   -0.472199
H     -3.614828    1.050984   -0.133621
H     -3.565824   -1.797446    0.319594
H     -3.002339   -0.443708    2.247420
H     -1.607924    2.372375    1.484451
H      5.876047    0.792173   -1.027048
H      4.702644    0.382100   -2.326159
