50

C      0.660991   -0.666025   -1.533084
C      1.741844    0.190517   -1.487284
N      1.456262    1.184370   -0.621575
C      0.221297    0.926241   -0.148620
N     -0.279695   -0.203491   -0.685298
C     -1.609298   -0.763712   -0.461547
C     -2.613959   -0.136007   -1.435768
C     -4.009273   -0.774929   -1.346566
C     -4.779564   -0.335655   -0.088742
C     -6.162569   -1.009146    0.024116
C     -6.733587   -0.750444    1.391597
O     -7.135652    0.402718    1.705225
O     -6.792037   -1.782049    2.323487
N     -7.078520   -0.498497   -1.000111
C      2.327609    2.293847   -0.238978
C      2.912330    2.087546    1.167486
C      3.685125    0.768224    1.338298
C      4.970336    0.716937    0.493611
C      5.778595   -0.568574    0.749238
C      5.029285   -1.791671    0.271105
O      4.823432   -1.967492   -0.959316
O      4.534705   -2.721383    1.181727
N      7.084569   -0.472410    0.092874
H      0.566773   -1.555668   -2.142200
H      2.665446    0.094373   -2.043065
H     -0.301380    1.547222    0.568561
H     -1.913048   -0.567818    0.588270
H     -1.575740   -1.865504   -0.609054
H     -2.683645    0.958612   -1.252276
H     -2.233704   -0.278370   -2.471171
H     -3.919134   -1.883001   -1.373261
H     -4.575892   -0.460110   -2.248038
H     -4.184620   -0.607675    0.809222
H     -4.902959    0.770113   -0.095647
H     -6.045920   -2.110075   -0.101047
H     -7.163938   -1.622672    3.252175
H     -6.792591   -0.887739   -1.926822
H     -8.031036   -0.893875   -0.821703
H      3.142271    2.418131   -0.983715
H      1.738950    3.236639   -0.246742
H      3.580310    2.942139    1.410833
H      2.078720    2.103692    1.902887
H      3.024415   -0.089195    1.089621
H      3.959208    0.670254    2.411406
H      4.723517    0.782071   -0.587258
H      5.603127    1.594269    0.752546
H      5.957008   -0.655413    1.843924
H      4.664381   -2.603779    2.179291
H      6.955042   -0.430056   -0.944784
H      7.632215   -1.338155    0.306171
