47

C      3.104154   -0.918241    0.411919
C      1.622216   -0.760732    0.786099
C      1.245620    0.697801    1.118295
N     -0.200493    0.857058    1.334652
C     -0.920283    1.101383    0.077378
C     -2.386446    1.298487    0.360245
O     -2.726237    2.189363    1.126444
C     -3.443133    0.427101   -0.286805
C     -4.409316    1.277285   -1.152288
C     -5.225758    0.437615   -2.170597
C     -6.234992   -0.506853   -1.498090
O     -7.012718   -1.164537   -2.464002
O     -5.923129    1.302863   -3.024757
O     -5.269281    2.025017   -0.329757
O     -4.132331   -0.310878    0.695746
C      4.043046   -0.743339    1.623766
C      5.529152   -0.993353    1.294184
C      5.811528   -2.456647    1.077086
O      5.538257   -3.012390   -0.018113
O      6.336684   -3.215967    2.116994
N      5.964259   -0.191449    0.145842
C      6.212287    1.216493    0.243863
O      6.129758    1.814949    1.349625
H      3.233730   -1.936453   -0.011419
H      3.365302   -0.185914   -0.384727
H      1.014583   -1.109480   -0.077017
H      1.381462   -1.418927    1.650997
H      1.759306    1.001824    2.055746
H      1.605473    1.383372    0.316209
H     -0.590552    0.001563    1.795635
H     -0.541440    2.029540   -0.405169
H     -0.765831    0.255519   -0.629364
H     -2.940004   -0.302985   -0.954863
H     -3.775022    1.975050   -1.748035
H     -4.526221   -0.187184   -2.773880
H     -6.888466    0.061455   -0.792829
H     -5.693000   -1.283664   -0.927502
H     -7.737211   -0.533823   -2.727345
H     -5.270083    1.646769   -3.686583
H     -5.584505    2.801664   -0.863490
H     -4.517786    0.327698    1.350888
H      3.734112   -1.433325    2.439517
H      3.949328    0.291362    2.013732
H      6.125031   -0.685829    2.181305
H      6.482605   -4.212923    2.011583
H      6.048748   -0.633079   -0.798621
H      6.477599    1.776741   -0.644450
