47

C      2.251490   -2.267250   -1.089334
C      2.430065   -0.767261   -1.377946
C      3.620969   -0.141187   -0.595053
C      3.448929    1.390410   -0.565600
C      2.072190    1.797686    0.038918
C      1.079403    0.604605    0.002859
O      1.188571   -0.079205   -1.235524
O     -0.244320    1.074343    0.176511
C     -1.169781    0.004122    0.306477
C     -1.943057    0.171906    1.634414
C     -3.025496   -0.918864    1.796208
C     -4.005048   -0.912277    0.599726
C     -3.229084   -1.061690   -0.729759
C     -2.136018    0.019753   -0.899205
O     -2.723723    1.289924   -1.042002
O     -4.102188   -1.084722   -1.832746
O     -4.762322    0.273073    0.592220
O     -3.722839   -0.705878    2.996511
O     -1.055749    0.150335    2.725506
N      1.534522    2.969904   -0.668496
O      4.502671    2.007960    0.131698
O      4.828146   -0.482627   -1.228273
O      1.797140   -2.487442    0.219623
H      1.495046   -2.676910   -1.792116
H      3.205302   -2.812154   -1.281175
H      2.691149   -0.692753   -2.457104
H      3.625109   -0.524200    0.452440
H      3.500012    1.740499   -1.621279
H      2.209313    2.072636    1.109971
H      1.333021   -0.068644    0.856989
H     -0.683910   -1.003547    0.326167
H     -2.440837    1.166940    1.631460
H     -2.520350   -1.913356    1.836951
H     -4.685826   -1.791585    0.692064
H     -2.717989   -2.050159   -0.706850
H     -1.557058   -0.230237   -1.819680
H     -2.070351    1.860079   -1.525471
H     -4.570144   -0.211045   -1.874812
H     -5.503284    0.148551    1.241010
H     -4.218527   -1.543686    3.192208
H     -0.602367   -0.733322    2.728309
H      0.703370    3.349232   -0.159725
H      2.256777    3.725885   -0.703253
H      1.256926    2.714273   -1.644419
H      4.511208    1.637620    1.053082
H      5.550672   -0.361632   -0.558260
H      2.598268   -2.648101    0.782745
