19

C     -0.833428   -1.391192    0.292283
C     -1.818273   -0.261770   -0.036063
N     -1.250854    0.623518   -1.059546
C      0.016043    1.198521   -0.592555
C      1.018156    0.074419   -0.270564
N      0.456476   -0.843792    0.738687
C      2.322543    0.654102    0.206770
O      2.378875    1.299907    1.287031
O      3.474516    0.486969   -0.551487
H     -0.686571   -2.030631   -0.607332
H     -1.265223   -2.028966    1.094761
H     -2.059729    0.313017    0.886845
H     -2.761526   -0.705992   -0.420499
H     -1.924012    1.410639   -1.211611
H      0.434789    1.844822   -1.394805
H     -0.158712    1.834684    0.305635
H      1.217844   -0.492908   -1.208989
H      0.319105   -0.345750    1.650481
H      1.119980   -1.639598    0.890957
