28

C      3.474025   -0.821658   -0.049932
C      2.248880   -1.571487    0.472348
C      1.049281   -0.645247    0.720444
C      0.428727   -0.120727   -0.581758
N     -0.786490    0.651152   -0.292296
C     -2.064140    0.202234   -0.335864
C     -2.934590    1.197921    0.066932
C     -2.161095    2.298887    0.369835
C     -0.846487    1.932051    0.144639
C      0.317123    2.808721    0.364132
O      0.158501    3.988873    0.773745
C     -2.485858   -1.180908   -0.737311
O     -2.050367   -2.101415    0.222358
H      3.733499    0.019361    0.627726
H      3.289655   -0.430221   -1.071642
H      4.338841   -1.516463   -0.097427
H      1.970531   -2.375983   -0.242640
H      2.521937   -2.056990    1.434298
H      1.358002    0.205593    1.365278
H      0.277996   -1.219417    1.277150
H      0.193230   -0.973002   -1.252910
H      1.151846    0.521061   -1.126198
H     -4.012126    1.129730    0.139327
H     -2.519143    3.256512    0.724651
H      1.320017    2.451277    0.178476
H     -3.594553   -1.228136   -0.821728
H     -2.053821   -1.426124   -1.732042
H     -2.323421   -2.995596   -0.110264
