37

C     -3.677199    2.877047   -1.123167
O     -4.169259    1.639640   -0.618713
C     -3.359900    0.597280   -0.139563
C     -1.956147    0.688490   -0.114201
C     -1.175979   -0.369548    0.380593
C     -1.817117   -1.538045    0.831062
C     -3.220618   -1.640240    0.810063
C     -3.980653   -0.567987    0.326707
O     -5.368225   -0.663007    0.306131
O     -3.894523   -2.788465    1.255983
C     -3.254893   -3.950258    1.774549
C      0.303563   -0.243694    0.385730
C      1.099754   -0.911879    1.330421
C      2.486135   -0.757854    1.291850
O      3.192358   -1.360697    2.144651
C      3.067084    0.068118    0.308883
C      4.462183    0.277671    0.198898
C      4.961219    1.120590   -0.805306
C      4.094948    1.756236   -1.698038
C      2.714797    1.552733   -1.594115
C      2.197587    0.715840   -0.601103
O      0.882709    0.537041   -0.523657
O      4.616630    2.588793   -2.685739
O      5.352375   -0.342848    1.076210
H     -3.107741    3.411901   -0.333941
H     -4.534770    3.509131   -1.431971
H     -3.030449    2.698685   -2.008137
H     -1.465887    1.586266   -0.466349
H     -1.226004   -2.375265    1.172022
H     -2.666143   -3.690449    2.679638
H     -2.593995   -4.398874    1.003091
H     -4.027885   -4.694485    2.055492
H      0.656058   -1.523738    2.105541
H      6.028212    1.283536   -0.892894
H      2.042027    2.044720   -2.285809
H      4.016238    3.064788   -3.348975
H      6.353511   -0.201171    1.008196
