31

C     -2.735837   -0.943165   -0.926866
C     -1.611770   -0.307218   -0.082415
C     -1.732431   -0.835603    1.360845
C     -1.817218    1.220293   -0.070957
C     -0.239446   -0.690370   -0.723822
N      0.926576   -0.158861    0.008038
C      1.602928    0.987197   -0.262727
C      2.661333    1.138828    0.612130
C      2.644083    0.044975    1.446977
C      1.584947   -0.745495    1.041132
C      1.302968   -2.084132    1.590759
O      1.937741   -2.507759    2.592474
C      1.404855    1.856886   -1.473673
O      1.994238    1.259038   -2.595298
H     -3.735453   -0.688252   -0.512319
H     -2.638364   -2.050431   -0.939995
H     -2.693464   -0.578797   -1.976224
H     -1.619197   -1.939259    1.387424
H     -0.971349   -0.370725    2.021426
H     -2.731531   -0.592072    1.783080
H     -1.835642    1.622114   -1.105557
H     -1.014660    1.726294    0.505666
H     -2.788652    1.479977    0.403025
H     -0.212918   -0.330228   -1.774767
H     -0.156096   -1.794983   -0.800833
H      3.401460    1.928261    0.604702
H      3.363844   -0.178377    2.223697
H      0.561630   -2.725520    1.139965
H      0.329825    2.006704   -1.675334
H      1.842749    2.865840   -1.298494
H      2.974851    1.384836   -2.502058
