21

C      2.527360   -1.556716   -0.027528
N      1.929038   -0.227847   -0.099480
C      2.579191    0.957946   -0.214641
N      1.741695    2.029058   -0.247575
C      0.529397    1.452960   -0.148898
C      0.629925    0.109257   -0.059220
C     -0.513292   -0.674370    0.063696
O     -0.422376   -1.928166    0.169888
N     -1.738506   -0.042240    0.070812
C     -1.804722    1.340135    0.001574
O     -2.919080    1.930201    0.051459
N     -0.663953    2.087673   -0.117514
C     -2.971327   -0.830373    0.229638
H      3.633343   -1.489124   -0.105812
H      2.149510   -2.183487   -0.862315
H      2.266955   -2.032494    0.941117
H      3.656360    1.048321   -0.271865
H     -0.709098    3.130257   -0.175447
H     -3.824759   -0.349116   -0.294034
H     -3.213646   -0.928232    1.308725
H     -2.862016   -1.843643   -0.212580
