21

C      1.707775    1.080372   -0.259936
C      0.570200    0.052100   -0.438221
C     -0.686016    0.453996    0.385997
C     -1.999168   -0.258025   -0.045797
C     -1.952675   -1.753230    0.118199
O     -1.412763   -2.459806   -0.718561
O     -2.315750    0.051684   -1.379037
O     -0.460447    0.327127    1.769846
O      1.008616   -1.246601   -0.115291
C      2.887548    0.732696   -1.114198
O      3.846093    0.072582   -0.633681
O      2.907972    1.100093   -2.453684
H      2.019464    1.129133    0.806509
H      1.349223    2.090861   -0.552876
H      0.289582    0.056010   -1.514354
H     -0.863311    1.536175    0.198323
H     -2.816580    0.112600    0.616137
H     -2.431291   -2.215330    0.975620
H     -2.641170    0.989772   -1.388502
H     -0.449259   -0.638438    1.994643
H      1.441957   -1.213772    0.777011
