21

C     -1.564180   -1.360282    0.312991
C     -0.900060   -0.054129    0.789432
C     -1.935337    1.043722    0.849480
O     -2.663068    1.297729   -0.147363
O     -2.075414    1.800097    2.006613
C      0.373751    0.371315   -0.029421
C      1.427482   -0.771461   -0.018410
C      2.745148   -0.341746   -0.597484
O      2.972029   -0.477039   -1.828686
O      3.707129    0.240350    0.218451
C      0.018949    0.727666   -1.468428
O     -0.191258   -0.176185   -2.321052
O     -0.108713    2.057165   -1.854973
O      0.975393    1.482300    0.604154
H     -1.875162   -1.293797   -0.749593
H     -0.882581   -2.225093    0.444350
H     -2.468699   -1.568522    0.924450
H     -0.569763   -0.239450    1.836264
H      1.067728   -1.654454   -0.588773
H      1.602472   -1.105629    1.027526
H      0.344153    2.247443    0.590471
