22

C      0.976474   -0.070103    0.803108
C     -0.412812    0.591561    0.748849
C     -1.455861   -0.158533   -0.108402
C     -2.735621    0.631970   -0.130636
O     -3.478220    0.669857    0.887704
O     -3.084330    1.351668   -1.269344
N     -1.707646   -1.500390    0.424963
C      1.666594   -0.127481   -0.565826
C      3.083072   -0.594853   -0.417700
O      3.356751   -1.818285   -0.535581
O      4.096780    0.306480   -0.106107
H      1.605979    0.531585    1.495696
H      0.903709   -1.090140    1.236754
H     -0.295070    1.627358    0.359190
H     -0.794145    0.675194    1.790720
H     -1.092401   -0.240081   -1.156316
H     -3.936285    1.898989   -1.297306
H     -0.883846   -2.104311    0.203140
H     -2.504742   -1.925065   -0.103915
H      1.127104   -0.827668   -1.238166
H      1.663323    0.879296   -1.036505
H      3.901194    1.292953    0.015684
