30

C     -0.547437   -2.746913    0.016273
C     -1.020699   -1.361650    0.482458
C      0.162211   -0.483343    0.956335
C      1.130327   -0.084794   -0.174512
C      2.241454    0.854763    0.329973
C      3.270630    1.079451   -0.752035
O      2.947876    1.665307   -1.819720
O      4.580350    0.635135   -0.590843
N      1.676281    2.130450    0.778638
N     -1.783373   -0.695197   -0.586857
C     -2.625789    0.291743   -0.413432
N     -3.275324    0.868026   -1.551177
N     -2.929314    0.817044    0.887419
H      0.057848   -3.236483    0.808745
H      0.057229   -2.677541   -0.911743
H     -1.428637   -3.389661   -0.194413
H     -1.687167   -1.557265    1.350137
H      0.725170   -1.027262    1.746349
H     -0.241463    0.437121    1.426300
H      0.570377    0.414233   -0.995340
H      1.605728   -1.000546   -0.586477
H      2.738873    0.368925    1.198447
H      4.876236    0.154570    0.250182
H      2.451484    2.730631    1.144115
H      1.247373    2.630930   -0.034205
H     -1.629408   -1.034397   -1.564611
H     -3.952702    1.653350   -1.431588
H     -3.084511    0.519088   -2.516851
H     -2.546154    0.421877    1.771810
H     -3.587472    1.622406    0.976624
