35

C      4.831894    0.886503    1.052575
C      4.075805    0.043169    0.017725
C      2.582350    0.062820    0.275664
C      1.909180   -1.126724    0.603930
C      0.532452   -1.120413    0.844516
C     -0.197065    0.075493    0.762395
C      0.470650    1.265222    0.435646
C      1.847112    1.260391    0.195173
C     -1.685663    0.083873    1.004710
C     -2.485416    0.225913   -0.307197
C     -3.981777    0.434545   -0.034587
C     -4.741528   -0.391573   -1.077159
C     -3.802566   -1.506340   -1.522350
C     -2.459209   -1.010543   -1.141632
O     -1.429159   -1.541168   -1.527357
C      4.377639    0.481141   -1.390394
O      4.464486    1.703740   -1.683208
O      4.510111   -0.470987   -2.393344
H      4.535552    1.955581    0.998354
H      4.618828    0.510024    2.075978
H      5.926342    0.812506    0.875798
H      4.455384   -0.997701    0.122822
H      2.448307   -2.063317    0.672852
H      0.034871   -2.050459    1.090079
H     -0.076573    2.197281    0.365799
H      2.337390    2.191975   -0.055838
H     -1.925893    0.941454    1.671106
H     -1.999151   -0.838664    1.542832
H     -2.097428    1.077550   -0.909082
H     -4.253836    1.510258   -0.104170
H     -4.259587    0.065501    0.978357
H     -4.988168    0.254882   -1.948458
H     -5.684300   -0.804036   -0.656664
H     -4.020176   -2.450878   -0.978987
H     -3.870859   -1.667016   -2.619977
