46

C     -2.061869   -3.994783   -0.157446
C     -1.978359   -2.552458   -0.536594
O     -1.696594   -2.237401   -1.724424
N     -2.178675   -1.540117    0.459815
C     -2.059246   -0.105836    0.175340
C     -0.691867    0.423189    0.678795
C     -0.840972    1.837106    1.298791
C     -1.934553    2.675381    0.579182
O     -3.208591    2.040225    0.462013
C     -3.232763    0.666500    0.818457
O     -4.449039    0.127568    0.368962
C     -1.486668    3.155962   -0.814601
O     -2.463847    3.986175   -1.382294
O      0.381879    2.530731    1.301599
O      0.207546    0.446546   -0.421825
C      1.534202    0.098283   -0.060035
C      1.830318   -1.354698   -0.479244
C      3.327824   -1.670671   -0.264238
C      4.204182   -0.599481   -0.856426
C      3.755552    0.652173   -1.042332
O      2.423665    0.978723   -0.747670
C      4.632737    1.702343   -1.587441
O      4.181258    2.864433   -1.762226
O      5.957125    1.431548   -1.913488
O      3.648052   -2.900118   -0.860034
O      1.023347   -2.262207    0.228173
H     -2.983513   -4.173458    0.434855
H     -1.176308   -4.268032    0.453063
H     -2.089558   -4.635689   -1.064212
H     -2.316750   -1.840666    1.451826
H     -2.138308    0.064769   -0.921845
H     -0.347580   -0.257200    1.494595
H     -1.181940    1.715353    2.355468
H     -2.084132    3.587386    1.198121
H     -3.184745    0.582356    1.931039
H     -4.660541   -0.648707    0.950959
H     -0.518445    3.702606   -0.753655
H     -1.339058    2.287263   -1.487579
H     -2.389970    4.865338   -0.926862
H      0.898854    2.204745    2.084013
H      1.744340    0.211584    1.029611
H      1.597741   -1.459085   -1.562499
H      3.551434   -1.708880    0.827570
H      5.237413   -0.847702   -1.068608
H      3.317206   -3.609920   -0.249705
H      1.239216   -2.171181    1.193046
