44

C      3.800372    1.580900   -1.296074
C      4.774581    1.046058   -0.248794
C      4.328889   -0.293202    0.361160
C      4.365960   -1.474189   -0.635145
C      2.990897   -1.811161   -1.235458
C      2.055970   -2.382920   -0.202518
O      2.314419   -3.507919    0.304639
C      0.873982   -1.627199    0.269785
C      0.684598   -1.422867    1.646748
C     -0.421780   -0.699431    2.100226
C     -1.358212   -0.176760    1.198667
C     -2.483358    0.672393    1.741772
C     -3.638489    0.856560    0.787242
C     -3.483521    0.673171   -0.603818
C     -4.577569    0.934257   -1.460480
C     -5.792065    1.382009   -0.933292
C     -5.937099    1.575643    0.443293
C     -4.862793    1.318682    1.296228
O     -7.143740    2.026637    0.973872
O     -4.477872    0.744471   -2.834911
C     -2.185736    0.182720   -1.124641
O     -1.937280    0.241112   -2.359539
C     -1.179224   -0.370897   -0.186235
C     -0.069039   -1.117101   -0.644942
O      0.081465   -1.385593   -2.003400
O      1.609491   -1.923430    2.564102
H      3.850100    0.967907   -2.219659
H      4.079240    2.622343   -1.561591
H      2.762215    1.582586   -0.900273
H      5.785653    0.943060   -0.699302
H      4.849249    1.793695    0.570550
H      5.029591   -0.524664    1.192906
H      3.325514   -0.177983    0.823066
H      5.077883   -1.259299   -1.461626
H      4.757801   -2.376066   -0.114876
H      2.555716   -0.906693   -1.703659
H      3.126519   -2.565086   -2.040316
H     -0.545421   -0.530788    3.163390
H     -2.863593    0.208569    2.678937
H     -2.075666    1.673806    1.996967
H     -6.624524    1.578815   -1.597387
H     -4.980708    1.486778    2.360121
H     -7.942258    2.223487    0.381809
H      1.499842   -1.782409    3.561548
