23

C     -1.441491   -0.619232    0.593871
C     -2.046853    0.442826   -0.344293
C     -1.942681    0.001270   -1.780730
O     -1.196382    0.624144   -2.581184
O     -2.654104   -1.105831   -2.227886
N     -3.448115    0.699853    0.006793
N     -0.026179   -0.840638    0.296117
C      0.996954    0.096817    0.660154
O      0.697675    1.142274    1.300477
C      2.398310   -0.173231    0.286095
C      3.395662    0.662578    0.597811
C      4.790330    0.387127    0.220059
O      5.692975    1.205084    0.536658
O      5.128753   -0.764129   -0.482401
H     -1.551106   -0.302085    1.653806
H     -1.993730   -1.577666    0.476269
H     -1.477826    1.391748   -0.219911
H     -4.015223   -0.176791   -0.063664
H     -3.505766    1.066119    0.984945
H     -3.848397    1.421313   -0.636673
H      0.248003   -1.740445   -0.159438
H      2.609946   -1.083671   -0.261451
H      3.189243    1.575170    1.144578
