20

C     -0.320519    2.049976    0.019814
C      0.963711    1.768530    0.239658
C      1.488490    0.374290    0.020719
C      0.418893   -0.690229    0.384071
C     -0.960681   -0.319167   -0.164348
C     -1.284272    0.981506   -0.294988
C     -2.009162   -1.354618   -0.372245
O     -1.696702   -2.497201   -0.797985
O     -3.351862   -1.094758   -0.097959
N      0.842227   -2.014677   -0.080400
O      2.637363    0.172668    0.802068
H     -0.665833    3.073745    0.086571
H      1.651034    2.570358    0.480468
H      1.740656    0.274880   -1.061250
H      0.322741   -0.724923    1.492617
H     -2.269873    1.279922   -0.627968
H     -3.659649   -0.234889    0.338576
H      1.734416   -2.275218    0.399218
H      1.034803   -1.978261   -1.108339
H      3.384220    0.638066    0.341704
