45

C     -3.819550   -2.038026   -0.183587
N     -3.672865   -0.760694    0.560177
C     -3.260073   -1.074235    1.954451
C     -5.008416   -0.109975    0.637297
C     -2.684266    0.181865   -0.091338
C     -1.220667   -0.357134   -0.148440
C     -0.227635    0.699949   -0.658341
C      1.174336    0.180611   -0.577316
N      1.757242   -0.536878   -1.563653
C      2.966572   -0.860978   -1.063640
C      3.080579   -0.350504    0.210953
N      1.950117    0.304884    0.516501
C      4.272425   -0.464448    1.118465
C      5.280048    0.686618    0.942584
C      5.888544    0.687447   -0.441439
O      5.391518    1.390726   -1.360987
O      6.972976   -0.136142   -0.728187
N      4.669346    1.978380    1.276416
C     -3.127011    0.628771   -1.479307
O     -2.929038   -0.110777   -2.482058
N     -3.771970    1.891302   -1.659694
H     -4.195064   -1.872351   -1.215263
H     -2.860541   -2.593406   -0.239419
H     -4.550688   -2.709554    0.321703
H     -4.070917   -1.594549    2.513538
H     -3.002936   -0.148900    2.516447
H     -2.389570   -1.763896    1.983779
H     -4.948413    0.863964    1.172854
H     -5.434792    0.072663   -0.373295
H     -5.744108   -0.749222    1.176819
H     -2.630831    1.104033    0.533987
H     -1.156155   -1.249077   -0.807443
H     -0.881852   -0.650753    0.864324
H     -0.308448    1.623564   -0.045996
H     -0.450066    0.963218   -1.714939
H      3.712568   -1.437606   -1.595436
H      1.718618    0.793597    1.410757
H      4.782683   -1.433444    0.931551
H      3.920291   -0.480832    2.171735
H      6.102910    0.507889    1.669703
H      7.379729   -0.735068   -0.019610
H      3.957550    2.238181    0.554876
H      5.413358    2.714380    1.254835
H     -3.961272    2.516746   -0.846193
H     -4.084266    2.189660   -2.609872
