17

C     -1.927895    0.874068    0.135818
C     -0.649030    1.685314    0.101832
C      0.487847    1.019523   -0.030960
C      0.499900   -0.402897   -0.233737
C      1.755726   -0.820622   -0.310056
C      2.576460    0.387880   -0.171431
O      3.834198    0.415496   -0.198510
O      1.779556    1.517356   -0.003150
C     -0.788754   -1.168113   -0.296433
O     -1.852037   -0.295994   -0.684311
O     -1.074425   -1.753007    0.947677
H     -2.166082    0.597294    1.186166
H     -2.758100    1.510721   -0.234097
H     -0.655284    2.755642    0.261759
H      2.090260   -1.840096   -0.449547
H     -0.698440   -1.961252   -1.072728
H     -0.453898   -2.521313    1.051707
