23

C      2.722245   -0.801869    1.195720
C      2.464398   -1.210705   -0.114631
C      1.309443   -0.775017   -0.771256
C      0.398722    0.077675   -0.120908
C      0.668702    0.481978    1.200979
C      1.825149    0.043211    1.852722
C     -0.859599    0.538477   -0.840820
C     -2.136076    0.017813   -0.146847
C     -2.196742   -1.479595   -0.159125
O     -1.818981   -2.137923    0.845579
O     -2.628907   -2.148333   -1.297319
N     -0.888863    2.003287   -0.943337
H      3.616649   -1.140747    1.702336
H      3.159635   -1.866829   -0.622234
H      1.126352   -1.105803   -1.785927
H     -0.014773    1.132606    1.730542
H      2.025147    0.357894    2.868835
H     -0.858378    0.130931   -1.878536
H     -3.029347    0.406149   -0.682006
H     -2.192099    0.388321    0.899673
H     -1.690032    2.297976   -1.547956
H     -0.004199    2.346453   -1.384090
H     -0.998445    2.444052   -0.001394
