20

C      2.798746    0.380988   -0.006894
C      1.992390    0.762807   -1.082641
C      0.672606    0.308137   -1.165544
C      0.152175   -0.538807   -0.172227
C      0.966419   -0.910700    0.910745
C      2.285776   -0.454030    0.989518
C     -1.279515   -1.006834   -0.240890
C     -2.201486   -0.148780    0.633835
C     -2.323043    1.247198    0.104090
O     -1.632683    2.176108    0.600113
O     -3.168392    1.513588   -0.965437
H      3.819720    0.734644    0.056226
H      2.389155    1.413614   -1.851072
H      0.056272    0.618527   -2.000195
H      0.578283   -1.551465    1.692869
H      2.909687   -0.745299    1.824599
H     -1.335175   -2.060965    0.108273
H     -1.643097   -0.999932   -1.292338
H     -1.825705   -0.128849    1.680444
H     -3.212134   -0.609949    0.650966
