24

C     -4.147303   -0.661178    0.337259
C     -3.802970    0.515141   -0.334482
C     -2.492578    0.999945   -0.271602
C     -1.512457    0.298810    0.443388
C     -1.873181   -0.865569    1.146034
C     -3.184256   -1.347973    1.081732
N     -0.189519    0.848417    0.534601
C      0.935069    0.202921    0.414900
N      0.968390   -1.191118    0.075300
N      2.153475    0.907834    0.686866
C      3.284249    0.786208    0.051699
N      4.423897    1.500858    0.529261
N      3.398118    0.015690   -1.151468
H     -5.162308   -1.034017    0.290230
H     -4.552361    1.054018   -0.899733
H     -2.236580    1.916972   -0.787395
H     -1.146494   -1.388623    1.754344
H     -3.456014   -2.248421    1.617296
H      0.160641   -1.664200   -0.385581
H      1.839532   -1.747004    0.222957
H      5.335954    1.444068    0.024415
H      4.359758    2.088347    1.390415
H      4.335586   -0.132888   -1.586027
H      2.561350   -0.298238   -1.689370
