48

C     -5.878827   -0.084739   -0.564612
C     -4.995576    0.888014    0.175054
C     -3.719204    1.132970   -0.199269
C     -3.029590    0.489837   -1.378511
C     -1.697040   -0.073126   -0.946053
C     -1.636509   -1.364170   -0.344706
C     -0.391432   -1.882767    0.084851
C      0.744190   -1.103336   -0.092412
C      0.686771    0.145876   -0.642873
C     -0.519996    0.709629   -1.068176
O     -0.575788    1.998638   -1.608532
C     -0.257448    3.156861   -0.845308
C      1.983838    0.608798   -0.707718
C      2.754256   -0.413861   -0.152319
O      1.979630   -1.424568    0.200012
C      4.227644   -0.433012    0.006129
C      4.991620    0.749237    0.137038
C      6.386459    0.668026    0.268520
C      7.026746   -0.573260    0.292084
C      6.271325   -1.745565    0.185870
C      4.883165   -1.676043    0.048429
O      8.412251   -0.630499    0.425537
O      4.374003    1.998913    0.163195
O     -2.826433   -2.094456   -0.190208
C     -2.912365   -3.383229    0.408109
C     -5.581851    1.615197    1.357720
H     -5.449817   -1.107057   -0.508918
H     -6.895103   -0.115170   -0.117424
H     -5.980293    0.224460   -1.626301
H     -3.141622    1.869841    0.353076
H     -2.894649    1.258656   -2.168021
H     -3.632043   -0.316001   -1.844287
H     -0.300984   -2.863180    0.531787
H     -0.415248    4.058377   -1.471774
H      0.798416    3.137327   -0.511723
H     -0.922009    3.217501    0.042083
H      2.326734    1.530219   -1.155254
H      6.974480    1.572352    0.363969
H      6.758853   -2.711966    0.207271
H      4.320961   -2.597757   -0.040065
H      8.906104   -1.515116    0.447358
H      4.906766    2.854989    0.263940
H     -3.971172   -3.713763    0.404127
H     -2.557166   -3.340412    1.459356
H     -2.309385   -4.114017   -0.171018
H     -6.434766    2.240881    1.020852
H     -5.948031    0.877003    2.101774
H     -4.839867    2.273468    1.858598
