44

C      3.192396   -1.035925    2.313599
C      3.557118   -0.853639    0.864394
C      2.687758   -0.198790   -0.041150
C      3.082231   -0.018575   -1.385543
C      4.315332   -0.529363   -1.820301
C      5.151824   -1.206543   -0.933488
C      4.775828   -1.370974    0.399303
C      2.176006    0.675796   -2.364800
N      1.419742    0.307230    0.402766
C      0.348555   -0.561230    0.797791
O      0.472249   -1.810708    0.682803
C     -0.928710    0.013714    1.349628
C     -2.089242    0.072913    0.315745
C     -2.508080   -1.338635   -0.149466
C     -4.023040   -1.376778   -0.045613
C     -4.435050    0.028732    0.347421
N     -3.262415    0.665570    0.965413
C     -3.216190    2.115810    0.704288
C     -2.223302    2.371485   -0.424518
C     -1.759705    1.000597   -0.868637
H      4.104333   -1.110639    2.943759
H      2.597292   -1.964785    2.434293
H      2.604072   -0.171317    2.685820
H      4.627700   -0.412942   -2.850960
H      6.096921   -1.604407   -1.280283
H      5.441593   -1.897408    1.072831
H      1.228691    0.105516   -2.464022
H      2.641278    0.753482   -3.370369
H      1.950962    1.703058   -2.009598
H      1.249432    1.336893    0.351200
H     -0.724522    1.031687    1.745338
H     -1.245084   -0.599936    2.221381
H     -2.174181   -1.553265   -1.188701
H     -2.091532   -2.133072    0.507838
H     -4.334448   -2.095515    0.745276
H     -4.487095   -1.674839   -1.010732
H     -5.277472    0.003768    1.071175
H     -4.764181    0.567898   -0.572098
H     -4.217056    2.539455    0.459449
H     -2.866694    2.629160    1.626172
H     -2.701440    2.921721   -1.263416
H     -1.358155    2.960107   -0.048027
H     -0.687167    1.004581   -1.146955
H     -2.346550    0.710114   -1.769005
