39

C      1.782299    2.291069    1.772980
C      1.707566    0.818583    2.163753
N      2.130259   -0.035505    1.040023
C      3.442008   -0.416025    0.962273
C      3.911016   -1.213123   -0.094899
C      3.005800   -1.602414   -1.100254
O      3.392163   -2.326465   -2.059691
C      1.665839   -1.190544   -1.025541
C      0.718841   -1.536564   -2.000903
N     -0.562546   -1.104964   -1.886981
C     -0.962552   -0.336001   -0.838369
N     -0.057178    0.004339    0.118068
C      1.241971   -0.399080    0.059734
N     -2.331392    0.115327   -0.740637
C     -3.259062   -0.109928   -1.859948
C     -4.700507   -0.204382   -1.354806
N     -5.024609    0.954447   -0.516871
C     -4.166665    0.969186    0.672134
C     -2.698818    1.121964    0.267729
C      5.342430   -1.608175   -0.146706
O      5.906968   -1.792249   -1.257646
O      6.088632   -1.785663    1.017506
H      2.822179    2.557338    1.488065
H      1.105328    2.496885    0.917122
H      1.472977    2.921861    2.632715
H      2.353267    0.645721    3.053413
H      0.671438    0.568855    2.480657
H      4.139333   -0.073948    1.717656
H      0.992059   -2.144465   -2.853893
H     -3.171128    0.731018   -2.581541
H     -3.021202   -1.056133   -2.391585
H     -5.387030   -0.227519   -2.228652
H     -4.841504   -1.151500   -0.785517
H     -6.014185    0.845618   -0.193222
H     -4.452553    1.826616    1.319080
H     -4.301505    0.035454    1.264545
H     -2.079718    1.015553    1.184312
H     -2.531499    2.137244   -0.152770
H      5.671278   -1.742430    1.938665
