42

C     -2.027364   -4.171396   -0.418099
O     -1.011572   -3.177788   -0.334274
C     -1.230111   -1.865476    0.107718
C     -2.497541   -1.386913    0.520545
C     -2.657062   -0.048379    0.964045
C     -1.547973    0.825088    0.975839
C     -0.317600    0.322589    0.564693
C     -0.163420   -0.970215    0.148093
O      1.082921   -1.195781   -0.186983
C      1.761599   -0.075647   -0.001511
C      0.914524    0.926983    0.477224
C      3.211143    0.049102   -0.276796
C      3.898697    1.269016   -0.063556
C      5.261354    1.312286   -0.344276
C      5.935717    0.231982   -0.809525
C      5.306664   -0.986871   -1.035033
C      3.929172   -1.075466   -0.764546
O      7.263739    0.562869   -0.997593
C      7.433952    1.938101   -0.626927
O      6.131693    2.377635   -0.216200
C     -4.016788    0.456912    1.364715
C     -4.765510    1.008261    0.147009
C     -6.151138    1.527192    0.539076
O     -6.830094    1.998339   -0.592938
H     -2.460876   -4.359668    0.586823
H     -1.581997   -5.114438   -0.795788
H     -2.822233   -3.845991   -1.122056
H     -3.360052   -2.039766    0.498750
H     -1.645179    1.856465    1.291981
H      1.153938    1.951249    0.727909
H      3.401988    2.154901    0.305885
H      5.859797   -1.839343   -1.406689
H      3.424832   -2.018328   -0.935188
H      8.150295    2.021528    0.217113
H      7.780407    2.530088   -1.499871
H     -4.603258   -0.368947    1.824360
H     -3.910358    1.254654    2.132650
H     -4.880687    0.205097   -0.613977
H     -4.178895    1.839088   -0.303515
H     -6.061028    2.336684    1.299381
H     -6.744036    0.700492    0.985487
H     -6.437658    2.883814   -0.811572
