37

C      1.822785    1.732781   -2.062111
C      1.830240    0.208064   -2.023952
N      2.035109   -0.271840   -0.645988
C      3.309830   -0.537432   -0.226224
C      3.572447   -0.979488    1.080895
C      2.491995   -1.145933    1.967711
O      2.693853   -1.536500    3.151252
C      1.188096   -0.856087    1.535823
C      0.072646   -0.985235    2.377913
N     -1.166242   -0.678756    1.916659
C     -1.356451   -0.245161    0.642653
N     -0.289898   -0.116561   -0.189780
C      0.976629   -0.409625    0.215938
N     -2.675098    0.076889    0.177772
C     -3.867789   -0.053529    0.994851
C     -5.035333    0.242303    0.062260
C     -4.432855    0.931272   -1.161041
C     -2.952724    0.571770   -1.158501
C      4.967672   -1.275529    1.497062
O      5.193520   -2.161541    2.363515
O      6.049687   -0.588028    0.949074
H      1.679030    2.079692   -3.106963
H      0.995052    2.129131   -1.436875
H      2.788663    2.128033   -1.682206
H      2.634050   -0.167901   -2.695331
H      0.874605   -0.180173   -2.439118
H      4.131603   -0.428873   -0.923788
H      0.180873   -1.324747    3.400072
H     -3.833219    0.684640    1.825249
H     -3.946908   -1.083646    1.405505
H     -5.514772   -0.711854   -0.249221
H     -5.794348    0.887082    0.556185
H     -4.549122    2.032889   -1.059982
H     -4.928739    0.597057   -2.098162
H     -2.742002   -0.226567   -1.902772
H     -2.332191    1.467938   -1.377974
H      5.929307    0.195463    0.319600
