16

C     -0.614975   -1.176246   -0.422353
C      0.781130   -1.100896   -0.436488
C      1.429963    0.068032   -0.017907
C      0.669805    1.162137    0.415399
C     -0.726489    1.089380    0.430512
C     -1.383611   -0.080828    0.011702
C     -2.861151   -0.154926    0.028779
O     -3.454630   -1.201325   -0.345540
O     -3.615996    0.930502    0.458668
N      2.857913    0.143881   -0.032824
H     -1.091598   -2.091374   -0.750999
H      1.356931   -1.953681   -0.773713
H      1.159019    2.071450    0.741487
H     -1.289866    1.949413    0.770081
H      3.350520    1.011067    0.277354
H      3.433036   -0.666588   -0.354159
