41

C     -4.792194    1.812489   -0.385387
C     -4.961878    0.626195    0.573309
C     -6.458996    0.359884    0.792313
N     -4.301825   -0.571822    0.015408
C     -2.872300   -0.612508    0.357901
C     -2.181497   -1.767304   -0.391464
C     -0.695527   -1.882299   -0.020789
O      0.001777   -0.687876   -0.370944
C      1.372222   -0.477990   -0.160975
C      2.204622   -1.449647    0.425227
C      3.565856   -1.191051    0.611499
C      4.122153    0.029870    0.203448
C      3.284313    1.007270   -0.361782
C      1.923128    0.748633   -0.547186
N      5.521117    0.277071    0.427277
C      6.345306    1.080257   -0.431499
O      5.941927    1.420823   -1.576254
C      7.733458    1.435873   -0.009219
O     -2.338008   -1.634203   -1.782921
H     -5.193272    1.558635   -1.390099
H     -3.723201    2.088415   -0.488755
H     -5.331834    2.702704    0.002930
H     -4.524453    0.897353    1.562094
H     -6.945026    0.062396   -0.161715
H     -6.597835   -0.454370    1.535052
H     -6.961010    1.269609    1.186009
H     -4.734463   -1.430800    0.431499
H     -2.377811    0.343421    0.082861
H     -2.750666   -0.761983    1.455059
H     -2.671821   -2.717336   -0.085693
H     -0.253399   -2.744637   -0.565811
H     -0.601737   -2.063721    1.072354
H      1.810681   -2.405729    0.741541
H      4.192201   -1.948567    1.065915
H      3.672125    1.978694   -0.637143
H      1.289969    1.509580   -0.985777
H      5.988593   -0.224442    1.216488
H      7.751165    1.666173    1.076721
H      8.090832    2.327184   -0.567436
H      8.411847    0.581541   -0.212877
H     -1.954540   -0.757784   -2.048901
