44

C      3.574237   -2.375441    0.557987
C      2.210074   -1.712152    0.425437
N      2.465899   -0.280771    0.359339
C      3.885388    0.024618    0.261882
C      4.581709   -1.327245    0.082870
N      5.841278   -1.414349    0.825232
C      1.395753    0.687253    0.326184
C      1.628312    2.075047    0.399317
C      0.546040    2.956108    0.359982
C     -0.765588    2.467269    0.247873
C     -1.879586    3.324105    0.217192
O     -1.720318    4.571647    0.323742
C     -3.172507    2.781607    0.098529
C     -3.318554    1.386853    0.051829
N     -2.232138    0.559237    0.086076
C     -0.964818    1.073036    0.179229
N      0.113517    0.242033    0.226674
C     -2.444427   -0.864501    0.013348
C     -3.174430   -1.529620    1.015079
C     -3.371268   -2.912509    0.939557
C     -2.844526   -3.639398   -0.132141
C     -2.120086   -2.984560   -1.132020
C     -1.921564   -1.602746   -1.062157
F     -3.035812   -4.979836   -0.201242
F     -3.675741   -0.840945    2.071166
C     -4.381714    3.638419    0.046043
O     -5.449025    3.245161    0.587433
O     -4.379630    4.863267   -0.619003
F      2.876741    2.588029    0.526648
H      3.634589   -3.300934   -0.055023
H      3.751191   -2.635530    1.625298
H      1.572154   -1.952638    1.303835
H      1.705558   -2.044165   -0.508235
H      4.084464    0.670700   -0.620600
H      4.216622    0.534447    1.192491
H      4.782029   -1.493437   -0.999968
H      5.670635   -1.197216    1.834614
H      6.489855   -0.681266    0.456426
H      0.738162    4.020473    0.421104
H     -4.312900    0.961803   -0.038384
H     -3.929654   -3.421677    1.714618
H     -1.712768   -3.546671   -1.962498
H     -1.363543   -1.104175   -1.844777
H     -3.593610    5.170669   -1.177843
