48

C      7.063583   -1.311492   -0.513599
C      7.188101    0.048024   -1.201058
C      5.895232    0.872749   -1.117119
C      5.632705    1.414914    0.294193
O      4.473743    2.248583    0.301571
C      3.144312    1.797670    0.248056
C      2.126800    2.753902    0.156222
C      0.786196    2.363263    0.100544
C      0.438609    1.008976    0.138427
C      1.456842    0.042278    0.234700
C      2.798383    0.432878    0.290719
O     -0.920393    0.668148    0.079271
C     -1.419774   -0.667131    0.116507
C     -2.945913   -0.656698    0.031200
C     -3.576134   -0.003736    1.275962
N     -5.049854    0.109012    1.206439
C     -5.777119   -1.177152    1.249566
C     -6.089005   -1.748139   -0.155443
O     -5.786301   -0.851901   -1.206709
C     -6.338143    0.412374   -0.923073
C     -5.555116    1.083764    0.212677
H      6.193010   -1.872267   -0.915508
H      7.982891   -1.905147   -0.701661
H      6.949972   -1.189625    0.583250
H      8.035213    0.614921   -0.757291
H      7.424906   -0.125168   -2.273247
H      5.986634    1.736952   -1.810474
H      5.036610    0.260272   -1.464913
H      6.500728    2.033290    0.606870
H      5.523122    0.599336    1.038353
H      2.377172    3.806811    0.125675
H      0.012595    3.117271    0.027847
H      1.222953   -1.013023    0.267743
H      3.553183   -0.336422    0.369105
H     -1.099458   -1.167453    1.056620
H     -1.017448   -1.235490   -0.750058
H     -3.290139   -1.707983   -0.051765
H     -3.245537   -0.111803   -0.888657
H     -3.145460    1.010976    1.423797
H     -3.295917   -0.590394    2.178298
H     -5.221180   -1.930185    1.851010
H     -6.738364   -1.007837    1.781320
H     -7.157599   -2.053724   -0.216196
H     -5.492289   -2.671763   -0.309345
H     -7.419874    0.334196   -0.662448
H     -6.272818    1.043692   -1.834399
H     -4.725282    1.683677   -0.223412
H     -6.224374    1.803174    0.730435
