47

C     -0.509918    0.941648   -2.841550
C     -0.432160   -0.018528   -1.609119
C     -1.845318   -0.014848   -0.838936
C     -2.180887    1.428239   -0.285954
N     -1.100851    2.094714    0.464895
C     -1.036838    2.315948    1.793686
N     -0.026165    3.158540    2.111271
C      0.499789    3.445906    0.904043
N     -0.158685    2.829562   -0.102666
C     -1.986830   -1.164632    0.199110
C     -1.772223   -2.516626   -0.186348
C     -1.903918   -3.556904    0.739974
C     -2.283173   -3.295840    2.052010
C     -2.549183   -1.992833    2.444340
C     -2.422582   -0.942961    1.528799
F     -2.420481   -4.311042    2.936058
F     -1.497465   -2.862438   -1.466035
O     -2.884544   -0.264556   -1.770619
N      0.797536    0.301586   -0.796132
C      2.033036    0.278674   -1.651746
C      3.275040   -0.372042   -1.019628
C      3.398613    0.066604    0.405464
C      4.534358    0.584707    0.878025
C      2.177425   -0.018053    1.269605
C      0.952691   -0.477459    0.458672
H      0.026382    1.898604   -2.630999
H     -1.546856    1.221124   -3.133947
H     -0.037096    0.466835   -3.738512
H     -0.278560   -1.028920   -2.037223
H     -2.427191    2.089408   -1.150833
H     -3.127337    1.429283    0.301594
H     -1.740849    1.939635    2.519334
H      1.340289    4.115144    0.760093
H     -1.734882   -4.576005    0.426394
H     -2.860386   -1.791653    3.458462
H     -2.678487    0.029492    1.889880
H     -2.583673   -0.929658   -2.441382
H      2.297692    1.331619   -1.895983
H      1.866660   -0.246246   -2.620928
H      4.171619   -0.094963   -1.615215
H      3.175048   -1.477919   -1.047235
H      4.605320    0.922965    1.907604
H      5.416147    0.668507    0.247439
H      2.361408   -0.736942    2.100744
H      1.969656    0.985015    1.708656
H      0.110015   -0.285835    1.136332
H      1.017813   -1.566855    0.238504
