35

C     -4.339045   -0.094653    0.903033
C     -3.985811   -0.907010   -0.347310
C     -4.163913   -0.088259   -1.630271
N     -2.632374   -1.470477   -0.255173
C     -1.418106   -0.707306   -0.169504
N     -0.226984   -1.355086   -0.089544
C      0.933784   -0.655508   -0.008472
N      0.899256    0.702383   -0.004546
C     -0.287511    1.358711   -0.085506
N     -1.441349    0.651061   -0.167423
O     -0.336031    2.754830   -0.086406
C      0.831818    3.563771   -0.009089
N      2.181723   -1.355891    0.077638
C      3.473147   -0.663307    0.145833
C      4.555320   -1.608484    0.677618
C      3.860267   -0.133789   -1.238382
H     -3.743478    0.838882    0.964682
H     -4.151269   -0.702243    1.813635
H     -5.415237    0.180014    0.882179
H     -4.705639   -1.754448   -0.399211
H     -3.852424   -0.691339   -2.509413
H     -3.565831    0.845354   -1.604700
H     -5.232830    0.186692   -1.756318
H     -2.546403   -2.512293   -0.251914
H      0.536886    4.632906   -0.028972
H      1.375248    3.357689    0.937392
H      1.495694    3.357103   -0.875311
H      2.153995   -2.400552    0.119761
H      3.396011    0.192419    0.852728
H      5.523131   -1.070907    0.770697
H      4.266860   -1.984229    1.682367
H      4.688263   -2.475559   -0.004697
H      3.930836   -0.969510   -1.967240
H      3.102067    0.591247   -1.601027
H      4.839927    0.387791   -1.189910
