31

C      2.984281   -0.184058    1.600325
C      2.754889   -0.163520    0.083789
C      2.996717   -1.542389   -0.544299
C      1.383065    0.397058   -0.275805
C      0.175431   -0.255573    0.082899
C     -1.077033    0.292542   -0.316611
C     -1.089129    1.547101   -0.958450
C      0.097559    2.196404   -1.282267
C      1.321728    1.621820   -0.960521
C     -2.394919   -0.414048   -0.004712
C     -3.452480   -0.249355   -1.109758
C     -2.944288    0.060714    1.343856
O      0.249791   -1.424399    0.847112
H      2.780661    0.820139    2.029883
H      4.042087   -0.444951    1.817814
H      2.335526   -0.928658    2.104492
H      3.540113    0.504063   -0.337350
H      4.059135   -1.837061   -0.407167
H      2.361997   -2.324246   -0.080491
H      2.786137   -1.506800   -1.634609
H     -2.017627    2.034767   -1.218492
H      0.067955    3.152374   -1.789429
H      2.227489    2.149022   -1.233596
H     -2.225250   -1.508356    0.050957
H     -3.883997    0.773518   -1.116144
H     -4.286396   -0.964240   -0.941147
H     -3.007578   -0.467869   -2.104151
H     -3.169401    1.148520    1.312164
H     -2.201976   -0.126260    2.148736
H     -3.874894   -0.491719    1.594909
H     -0.539591   -1.864539    1.298062
