34

C      5.196384    1.328509   -0.292042
C      4.385057    0.099462   -0.541660
O      4.436304   -0.462134   -1.669303
N      3.588169   -0.457417    0.512366
C      2.750309   -1.641740    0.327187
C      1.500233   -1.316130   -0.500033
C      0.593693   -0.292671    0.209838
N     -0.637614   -0.021035   -0.551751
C     -1.703532   -0.999081   -0.280233
C     -2.564513   -0.564431    0.916608
C     -3.179695    0.838073    0.766248
C     -4.223101    0.912949   -0.355135
N     -4.869521    2.221585   -0.351400
H      4.579089    2.084407    0.237040
H      6.075040    1.070162    0.334667
H      5.548941    1.763883   -1.251182
H      3.640020   -0.029198    1.464317
H      2.441239   -2.034896    1.320320
H      3.337394   -2.439151   -0.177642
H      1.802206   -0.922601   -1.494223
H      0.941099   -2.260321   -0.668480
H      0.355758   -0.641252    1.238982
H      1.147414    0.664625    0.314432
H     -0.426246   -0.017802   -1.577378
H     -1.289044   -2.011479   -0.080934
H     -2.352589   -1.102585   -1.176499
H     -3.376177   -1.309207    1.066916
H     -1.940713   -0.577858    1.835664
H     -2.381960    1.591095    0.587477
H     -3.671400    1.099065    1.728856
H     -4.988530    0.115972   -0.219983
H     -3.725837    0.764642   -1.337488
H     -5.481987    2.282020    0.494603
H     -5.505891    2.264539   -1.180150
