32

C     -4.713072    0.076444    0.971827
C     -3.585619   -0.215083    0.041345
O     -3.820687   -0.752520   -1.074937
O     -2.284173    0.149741    0.400960
C     -1.153625   -0.053595   -0.447095
C     -1.143341    0.915383   -1.609717
C      0.333581    1.140134   -1.908783
N      1.114279    0.742133   -0.720622
C      0.137904    0.274033    0.289338
C      0.642034   -0.900260    1.161775
C      2.125877   -0.710065    1.473515
C      2.972399   -0.651390    0.175857
C      2.126916   -0.278330   -1.061780
N      4.091417    0.283052    0.320554
H     -4.332998    0.169347    2.010763
H     -5.459589   -0.744806    0.935287
H     -5.199901    1.028665    0.675542
H     -1.133138   -1.099440   -0.830173
H     -1.615211    1.878243   -1.311274
H     -1.679836    0.498917   -2.489853
H      0.611369    0.559964   -2.819347
H      0.518128    2.214207   -2.124504
H     -0.055663    1.133175    0.971899
H      0.061649   -0.938218    2.109173
H      0.506012   -1.874490    0.642306
H      2.480121   -1.547829    2.112607
H      2.241324    0.226736    2.062715
H      3.394952   -1.664185   -0.010681
H      2.798863    0.105611   -1.861946
H      1.630233   -1.194002   -1.458681
H      3.719593    1.239901    0.523823
H      4.670203   -0.011472    1.140801
