16

C      1.905369    0.834066    0.048030
C      1.222476    1.943709   -0.396141
O     -0.022277    1.647675   -0.681734
C     -0.204795    0.366823   -0.448207
C      0.982077   -0.194970    0.019401
C      1.248475   -1.588507    0.421690
O      2.395298   -1.916589    0.825331
O      0.251828   -2.553129    0.364263
C     -1.526385   -0.311534   -0.646683
C     -2.259225   -0.409285    0.652968
O     -2.434195   -1.528612    1.202113
O     -2.742167    0.740116    1.266045
O      1.764693    3.215100   -0.527455
H      2.941545    0.784286    0.356593
H     -1.384479   -1.314606   -1.100504
H     -2.138238    0.285457   -1.355710
