49

C      1.354453   -0.968628    0.938136
C      2.205086    0.306447    0.772729
C      2.396656    0.705217   -0.719590
C      3.634299    1.595541   -0.846564
C      4.890466    0.856000   -0.329658
C      4.536094   -0.207292    0.740615
O      3.416634    0.186135    1.518299
O      4.311046   -1.465500    0.153126
O      5.787551    1.784921    0.224223
O      3.808432    1.962758   -2.191125
O      1.271740    1.414983   -1.177218
O      0.061514   -0.790112    0.390199
C     -0.863457   -0.293404    1.350091
C     -1.664148   -1.447917    1.985739
C     -2.563895   -2.107444    0.928679
C     -3.407672   -1.046977    0.199518
C     -2.485660    0.089218   -0.321776
O     -1.736940    0.649528    0.749478
C     -3.244430    1.256199   -1.009362
C     -3.855452    0.896608   -2.381333
O     -4.273546    2.059088   -3.044900
O     -4.200241    1.827981   -0.149232
O     -4.075618   -1.658314   -0.873272
O     -3.412163   -3.049145    1.534262
O     -2.454505   -0.958352    3.039942
H      1.328050   -1.279849    2.008730
H      1.834891   -1.807101    0.394562
H      1.644346    1.136825    1.254343
H      2.560254   -0.205525   -1.346056
H      3.458395    2.509611   -0.228853
H      5.387788    0.332343   -1.180906
H      5.398218   -0.302312    1.441132
H      5.198261   -1.825936   -0.109400
H      6.227857    2.249408   -0.534833
H      4.409108    2.753087   -2.196972
H      0.667275    0.760105   -1.613858
H     -0.350830    0.253312    2.176471
H     -0.958280   -2.218435    2.375007
H     -1.919284   -2.621105    0.175616
H     -4.142072   -0.617546    0.920607
H     -1.794990   -0.333177   -1.087697
H     -2.480512    2.040440   -1.209236
H     -3.113104    0.347804   -3.005018
H     -4.741185    0.242089   -2.256261
H     -3.457951    2.481981   -3.421488
H     -5.001640    1.243158   -0.147224
H     -4.893097   -2.082197   -0.502193
H     -2.850279   -3.835342    1.762604
H     -1.847459   -0.819176    3.813217
