45

C      5.441279   -0.454060   -0.613366
C      6.668490    0.000120   -0.121381
C      6.771094    0.460979    1.196776
C      5.639970    0.469144    2.017368
C      4.410631    0.014892    1.529456
C      4.301408   -0.464885    0.208200
C      3.019252   -0.944546   -0.362123
C      1.984861   -1.363817    0.378093
C      0.711683   -1.847706   -0.258037
C     -0.080778   -0.709474   -0.922069
C     -0.610620    0.327217    0.101098
C     -1.214274    1.585626   -0.564002
C     -2.333951    1.342301   -1.595944
C     -3.590678    0.767387   -0.992552
C     -4.348013    1.519904   -0.079803
C     -5.515812    0.991795    0.482235
C     -5.941301   -0.299162    0.125605
C     -5.194595   -1.047054   -0.794719
C     -4.029751   -0.516434   -1.354314
O     -7.102190   -0.832042    0.683730
O     -6.239310    1.763685    1.390704
O     -1.509525   -0.235804    1.026819
O      7.988650    0.915623    1.698156
H      5.383566   -0.805801   -1.636426
H      7.538195   -0.005497   -0.766062
H      5.711791    0.835389    3.033705
H      3.551186    0.065497    2.183161
H      2.934147   -0.991812   -1.442126
H      2.052712   -1.407993    1.456330
H      0.955175   -2.618985   -1.020882
H      0.080775   -2.338137    0.514110
H     -0.931332   -1.163908   -1.472876
H      0.561679   -0.198950   -1.672285
H      0.261252    0.691687    0.686497
H     -1.582423    2.270671    0.230134
H     -0.392716    2.126221   -1.083452
H     -1.957538    0.705409   -2.424234
H     -2.593812    2.318450   -2.059947
H     -4.032375    2.518667    0.195643
H     -5.516771   -2.041140   -1.077541
H     -3.467112   -1.111037   -2.063046
H     -7.429515   -1.760135    0.442077
H     -7.090486    1.427197    1.824652
H     -2.089197   -0.882993    0.550761
H      8.826280    0.923509    1.127883
