20

C     -1.687116    1.231057    0.389828
C     -0.610013    2.007831   -0.327559
C      0.568488    1.462620   -0.667814
C      0.888553    0.018138   -0.371226
C     -0.375075   -0.864145   -0.518907
C     -1.536385   -0.265231    0.251444
O     -2.397766   -0.990578    0.726294
N     -0.103878   -2.237902   -0.082066
C      1.523456   -0.110380    0.994681
O      0.998718    0.442490    1.998092
O      2.674320   -0.874528    1.168781
H     -1.664218    1.500602    1.466739
H     -2.673014    1.532231   -0.023544
H     -0.780436    3.060455   -0.531868
H      1.316743    2.078883   -1.157640
H      1.628943   -0.314850   -1.131116
H     -0.663503   -0.880920   -1.594986
H      0.701723   -2.606863   -0.638316
H     -0.922357   -2.835374   -0.342320
H      3.112816   -1.353537    0.391502
