35

C     -6.128138    1.215358   -0.395446
O     -4.915991    1.611945    0.237746
C     -3.669311    1.006412    0.015579
C     -2.553670    1.497633    0.708180
C     -1.291309    0.920449    0.511722
C     -1.126927   -0.147319   -0.386017
C     -2.247792   -0.646871   -1.066312
C     -3.507183   -0.073397   -0.873125
C      0.225094   -0.791387   -0.573885
C      0.537193   -1.749950    0.586683
C      1.955007   -2.236406    0.487254
O      2.238249   -3.399848    0.880358
C      3.006424   -1.317650   -0.011250
C      4.383308   -1.612356    0.076367
C      5.326563   -0.679376   -0.369052
C      4.915391    0.549278   -0.894111
C      3.549806    0.844884   -0.986025
C      2.598426   -0.087230   -0.561776
O      1.236645    0.213937   -0.683075
O      5.870909    1.467873   -1.322825
O      4.828265   -2.817304    0.609584
O     -2.708284    2.562002    1.594943
H     -6.953413    1.863931   -0.036816
H     -6.366490    0.161753   -0.137934
H     -6.038957    1.329594   -1.496454
H     -0.439410    1.302663    1.060879
H     -2.148264   -1.482803   -1.747710
H     -4.348745   -0.479491   -1.417389
H      0.230584   -1.378672   -1.519981
H      0.414586   -1.227754    1.560295
H     -0.164153   -2.612549    0.556181
H      6.382980   -0.907057   -0.299165
H      3.225845    1.792426   -1.397854
H      5.605861    2.366724   -1.708469
H     -1.923098    2.940558    2.111760
