20

C     -1.550482    1.652576   -0.026518
C     -2.197707    0.496195    0.114093
C     -1.467804   -0.811090   -0.042012
C      0.005195   -0.712943    0.456620
C      0.668606    0.582133   -0.019227
C     -0.088680    1.681663   -0.204916
C      2.144325    0.711865   -0.107537
O      2.660624    1.599491   -0.839991
O      2.975254   -0.119900    0.635861
N      0.762573   -1.894032    0.019185
O     -1.531719   -1.235318   -1.382075
H     -2.101588    2.583913   -0.001799
H     -3.272710    0.495153    0.244370
H     -1.994661   -1.568783    0.577419
H     -0.016259   -0.685864    1.570488
H      0.368187    2.633444   -0.448221
H      3.982943   -0.029173    0.585457
H      0.157511   -2.743389    0.104445
H      1.537423   -2.064269    0.698770
H     -1.041030   -0.571672   -1.934411
