42

C     -5.069679   -0.106943    0.056463
C     -4.526256    1.279630    0.388418
N     -3.247999    1.020628   -0.293079
C     -3.740120   -0.324024   -0.657974
C     -3.872856   -0.511313   -2.149830
O     -4.518735    0.320218   -2.850286
O     -3.255204   -1.602807   -2.761092
C     -2.099255    0.985964    0.636831
C     -0.777844    0.720174   -0.122171
C      0.152793   -0.284898    0.598757
C     -0.481566   -1.658461    0.614469
O     -0.964330   -2.114255    1.681711
O     -0.553077   -2.420199   -0.544546
N      1.471985   -0.314160   -0.068590
C      2.459029   -1.103305    0.693419
C      3.779722   -1.306429   -0.078743
C      4.631713   -0.035973   -0.346601
C      4.096419    0.789235   -1.496890
O      4.068035    0.296304   -2.653347
O      3.657861    2.103828   -1.304737
N      4.818756    0.780227    0.864746
H     -5.174022   -0.741528    0.971185
H     -5.965693   -0.082024   -0.608982
H     -5.108753    2.087235   -0.122196
H     -4.430278    1.453092    1.490688
H     -3.106660    1.675642   -1.101370
H     -3.163018   -1.159580   -0.195221
H     -2.020764    1.968784    1.148152
H     -2.266362    0.237320    1.439192
H     -0.248336    1.695482   -0.231888
H     -0.978918    0.356772   -1.159563
H      0.287186    0.068812    1.649005
H      1.378645   -0.696356   -1.041053
H      1.823691    0.669066   -0.125495
H      2.656266   -0.632548    1.681114
H      2.056983   -2.119567    0.897192
H      4.403139   -2.010897    0.519475
H      3.567761   -1.827699   -1.040109
H      5.634495   -0.399354   -0.667497
H      5.167982    0.177872    1.650332
H      5.531201    1.524623    0.679118
H      3.926064    1.241412    1.150982
