17

C     -0.836576   -0.147944   -0.231676
C      0.436579   -0.768949    0.404070
C      1.694273   -0.172934   -0.171760
O      1.992147   -0.361236   -1.382172
O      2.522961    0.603321    0.632526
O      0.454142   -2.166613    0.249333
C     -0.895313    1.336028    0.007135
O     -1.060938    1.787663    1.172573
O     -0.745654    2.214986   -1.061178
N     -2.055062   -0.769684    0.294039
H     -0.808179   -0.317475   -1.331865
H      0.425091   -0.556856    1.495803
H      3.368609    1.018046    0.259662
H      0.398240   -2.364978   -0.722392
H     -0.773637    3.217276   -0.917064
H     -2.016416   -0.789844    1.339679
H     -2.100268   -1.760808   -0.036713
