31

C     -0.680055   -0.740303   -1.080742
C      0.671289   -0.135650   -1.500227
C      1.318403    0.754127   -0.425469
N      1.417132    0.057166    0.867549
C      2.624671   -0.777560    0.975735
C      3.860843    0.047970    1.205509
O      4.673577    0.237560    0.261678
N      4.110450    0.634366    2.482638
C     -1.768851    0.326182   -0.868284
C     -3.160010   -0.302603   -0.632314
C     -3.198246   -1.113901    0.637808
O     -3.425387   -2.351224    0.580349
O     -2.982332   -0.521568    1.880232
N     -4.200966    0.726354   -0.586131
H     -1.007034   -1.433173   -1.886576
H     -0.550513   -1.344334   -0.157156
H      0.535139    0.462223   -2.427607
H      1.364986   -0.964921   -1.753929
H      2.314960    1.095883   -0.781124
H      0.704456    1.672740   -0.303513
H      1.418463    0.767702    1.636945
H      2.498943   -1.469368    1.835327
H      2.748949   -1.414460    0.073644
H      4.963583    1.215911    2.638013
H      3.446189    0.487366    3.274704
H     -1.501477    0.972056   -0.005380
H     -1.818833    0.970948   -1.773050
H     -3.387027   -0.977950   -1.488643
H     -2.794735    0.468982    1.972421
H     -4.271327    1.172031   -1.530001
H     -3.925242    1.477446    0.087932
