48

C     -5.680799    2.266968   -0.086712
O     -4.878528    1.110151   -0.016745
C     -4.155518    1.112343    1.197658
O     -3.322485   -0.027252    1.252607
C     -2.180819    0.132263    0.424099
C     -0.988974    0.577596    1.288276
C      0.306165    0.537966    0.474296
C      0.448296   -0.853227   -0.167837
C      1.743556   -0.877367   -0.991217
C      2.948185   -0.427456   -0.136896
C      2.605825    0.916536    0.578532
O      1.405538    0.790396    1.327805
C      3.711806    1.335799    1.564084
C      4.948799    1.848601    0.874643
C      5.683334    1.094877    0.046683
C      5.287444   -0.304306   -0.318601
O      4.055887   -0.284839   -1.012526
O      1.964842   -2.153327   -1.540360
O     -0.655611   -1.115405   -1.015382
C     -1.849659   -1.220674   -0.253368
C     -2.993092   -1.648396   -1.187616
C     -2.708057   -2.981328   -1.807525
O     -3.022867   -4.040079   -1.201028
O     -2.055148   -3.050119   -3.034229
H     -5.056292    3.187697   -0.104527
H     -6.408936    2.306322    0.754030
H     -6.261118    2.237636   -1.031644
H     -4.861315    1.045989    2.055211
H     -3.560809    2.049501    1.326430
H     -2.328418    0.885888   -0.389481
H     -1.158250    1.610758    1.661009
H     -0.896144   -0.094879    2.170460
H      0.230417    1.322283   -0.316804
H      0.528989   -1.630960    0.629433
H      1.629928   -0.162833   -1.837795
H      3.120148   -1.219354    0.630498
H      2.498317    1.729237   -0.178895
H      3.322895    2.151858    2.211476
H      3.977147    0.487879    2.232526
H      5.273263    2.864520    1.080536
H      6.578701    1.519764   -0.397759
H      5.292917   -0.962013    0.580426
H      6.058120   -0.713656   -1.004624
H      2.059729   -2.794849   -0.788351
H     -1.744971   -2.008260    0.531186
H     -3.947342   -1.714575   -0.621068
H     -3.126082   -0.893301   -1.992779
H     -1.839014   -3.944375   -3.458135
