44

C     -4.194347   -1.161124   -1.659255
N     -3.210929   -1.330239   -0.578062
C     -3.867904   -1.917413    0.602055
C     -2.076839   -2.167266   -1.029135
C     -0.785701   -1.788320   -0.291447
N     -0.355055   -0.426814   -0.653030
C      0.797457   -0.242795   -1.544926
C      2.002878    0.164341   -0.742920
C      2.261718    1.519800   -0.487809
C      3.351824    1.891613    0.304591
C      4.192871    0.919733    0.860985
C      3.925238   -0.440873    0.616312
C      2.834286   -0.813168   -0.175072
O      5.274100    1.342958    1.648866
C      6.212057    0.466067    2.263498
C     -1.057552    0.736762   -0.166326
C     -1.490544    0.825165    1.169457
C     -2.160967    1.971890    1.600030
C     -2.391434    3.020008    0.707742
C     -1.938704    2.907546   -0.606427
N     -1.288705    1.782972   -1.009141
H     -3.727548   -0.631275   -2.517831
H     -4.582924   -2.145381   -2.006258
H     -5.043824   -0.533644   -1.314700
H     -4.651634   -1.227382    0.982309
H     -3.137233   -2.063162    1.424937
H     -4.335163   -2.898254    0.358010
H     -2.288724   -3.250400   -0.879875
H     -1.883547   -2.029173   -2.116946
H     -0.906603   -1.887373    0.804528
H     -0.001503   -2.525560   -0.569578
H      1.018570   -1.179488   -2.102245
H      0.567882    0.519403   -2.321087
H      1.615974    2.288083   -0.894933
H      3.542495    2.942423    0.489172
H      4.550426   -1.217233    1.036062
H      2.634916   -1.864639   -0.340217
H      6.955604    1.065197    2.829494
H      6.745635   -0.122105    1.487555
H      5.692882   -0.214691    2.970067
H     -1.295306    0.034733    1.879675
H     -2.494136    2.050882    2.628066
H     -2.907990    3.913576    1.033327
H     -2.101997    3.714621   -1.306774
