16

C     -1.597889    1.325929    0.383997
C     -0.397102    2.030905    0.387724
C      0.804977    1.366266    0.144292
C      0.825039   -0.017405   -0.110320
C     -0.397607   -0.744996   -0.079266
C     -1.600662   -0.050292    0.155192
C     -0.441389   -2.220225   -0.214304
O     -1.529945   -2.818962   -0.424493
C      2.128786   -0.640931   -0.438171
O      2.204062   -1.584624   -1.268401
O      3.299026   -0.140546    0.120932
H     -2.529286    1.844996    0.570475
H     -0.397712    3.097701    0.571104
H      1.721971    1.942833    0.128889
H     -2.547016   -0.576107    0.186006
H      0.454749   -2.814542   -0.113655
