31

C      5.970934    0.065315   -0.331417
O      5.437533    0.877496    0.723900
C      4.066212    0.710905    0.738597
C      3.705108   -0.155292   -0.240553
O      4.831362   -0.576415   -0.920865
C      2.377531   -0.511502   -0.458738
C      1.387502    0.062301    0.373187
C      1.777322    0.963364    1.400323
C      3.131526    1.295547    1.586241
C     -0.041007   -0.294338    0.184667
C     -0.412669   -1.640930    0.062623
O     -1.683713   -1.985345   -0.099930
C     -2.668467   -1.096186   -0.157564
C     -3.982517   -1.543336   -0.328061
C     -5.036718   -0.630116   -0.394153
C     -4.777789    0.741473   -0.289327
C     -3.469543    1.207218   -0.118342
C     -2.394987    0.288860   -0.049671
C     -1.050642    0.685228    0.117190
O     -0.744482    1.907480    0.185347
O     -3.259331    2.578928   -0.017678
O     -6.338727   -1.095514   -0.564355
H      6.483428    0.701787   -1.082924
H      6.666093   -0.694211    0.083775
H      2.121242   -1.200176   -1.253856
H      1.037170    1.392918    2.063557
H      3.437637    1.979612    2.366682
H      0.336379   -2.421153    0.108435
H     -4.185111   -2.604199   -0.409938
H     -5.595187    1.449974   -0.340523
H     -7.126091   -0.459696   -0.616331
