50

C      5.556211    1.052871    0.424520
C      4.721819   -0.230083    0.331771
C      5.230780   -1.149050   -0.785643
C      3.239026    0.081124    0.170257
C      2.379590   -0.263363    1.139536
C      0.901634    0.097631    1.111843
C      0.123946   -1.130566    1.606411
C     -1.382678   -0.886561    1.595591
C     -1.885109   -0.583889    0.161223
C     -3.432286   -0.371532    0.085761
C     -3.849604   -0.262245   -1.408217
C     -3.092210    0.820458   -2.177992
C     -1.572360    0.723118   -1.973408
C     -1.154857    0.645364   -0.470076
C      0.377684    0.496559   -0.277615
C      1.259041    0.875530   -1.228203
C      2.707476    0.747328   -1.036740
O      3.481365    1.190441   -1.926129
C     -1.642589    1.915872    0.199071
O     -0.912771    2.943198    0.219127
O     -2.964904    2.021150    0.645845
C     -3.833211    0.907377    0.876955
C     -4.199776   -1.580518    0.676212
O      0.690672    1.154836    2.016438
H      5.549607    1.613677   -0.532645
H      5.158192    1.708418    1.228474
H      6.609532    0.801510    0.672801
H      4.886427   -0.780851    1.285552
H      5.225907   -0.636751   -1.769661
H      6.271875   -1.469132   -0.566554
H      4.595468   -2.058300   -0.849720
H      2.757447   -0.732158    2.041570
H      0.432223   -1.379275    2.646632
H      0.356712   -2.012348    0.966973
H     -1.627821   -0.056840    2.291585
H     -1.858916   -1.810165    1.983536
H     -1.635853   -1.482443   -0.451009
H     -4.939789   -0.056086   -1.489691
H     -3.664968   -1.235574   -1.916374
H     -3.457520    1.824274   -1.872918
H     -3.317229    0.716502   -3.261646
H     -1.146511    1.630217   -2.452461
H     -1.189328   -0.169188   -2.516844
H      0.943299    1.267604   -2.180769
H     -4.872949    1.206928    0.625134
H     -3.824331    0.698439    1.967858
H     -5.288501   -1.488765    0.471143
H     -4.087254   -1.645000    1.778411
H     -3.839865   -2.531468    0.227540
H      1.217260    1.934747    1.696548
