42

C      2.008699    2.237603    1.771498
C      2.645236    1.574800    0.544248
C      3.337015    0.224614    0.900322
C      3.347256   -0.681897   -0.335997
C      1.899385   -0.917928   -0.844077
C      0.966204    0.269600   -0.486001
O      1.698512    1.481537   -0.518039
O     -0.066460    0.362140   -1.455272
C     -1.264884   -0.267427   -1.026952
C     -1.978760   -0.810680   -2.279513
O     -1.206000   -1.813248   -2.882826
C     -2.134603    0.754148   -0.224616
C     -2.846140    0.129707    1.005299
C     -3.846107   -0.984173    0.661459
O     -4.867130   -0.497784   -0.165698
O     -3.519496    1.133189    1.722282
O     -3.067600    1.411772   -1.045995
O      1.369574   -2.126191   -0.354548
O      3.981284   -1.897651   -0.029935
O      4.657472    0.450444    1.323408
H      1.535913    3.198090    1.476035
H      1.232940    1.584734    2.222766
H      2.783903    2.450696    2.537488
H      3.438617    2.267674    0.186447
H      2.770778   -0.300243    1.706889
H      3.926981   -0.157780   -1.133536
H      1.951595   -1.004021   -1.952015
H      0.553737    0.130146    0.544410
H     -1.050290   -1.154736   -0.385440
H     -2.987436   -1.206672   -2.034628
H     -2.115644    0.008796   -3.016799
H     -1.320019   -2.630863   -2.331101
H     -1.447060    1.523920    0.200339
H     -2.068166   -0.325151    1.663672
H     -3.324607   -1.836700    0.175304
H     -4.291854   -1.365376    1.607472
H     -5.453706   -1.273330   -0.363994
H     -2.830085    1.646807    2.219396
H     -2.555897    2.054986   -1.603333
H      1.360713   -2.070926    0.636712
H      4.169355   -2.345384   -0.895904
H      4.606775    0.772756    2.260771
