31

C      3.851339   -1.473485    0.864691
C      2.389447   -1.665810    0.600719
O      1.927724   -2.836963    0.582012
C      1.508123   -0.491313    0.394257
C      0.146686   -0.580160    0.049940
C     -0.599287    0.569379   -0.114300
C     -0.054675    1.837385    0.046224
C      1.310564    1.914671    0.387570
N      2.035216    0.762357    0.547671
C      1.971677    3.223381    0.575273
O      1.315769    4.290376    0.431833
N      3.356737    3.299703    0.920259
C     -1.870487    0.165964   -0.449951
C     -1.838644   -1.211375   -0.477321
N     -0.609310   -1.684057   -0.174510
C     -2.976693   -1.955761   -0.792998
C     -4.165319   -1.253910   -1.083072
C     -4.189544    0.158336   -1.052904
C     -3.029477    0.886324   -0.733318
O     -2.932406   -3.347702   -0.818878
H      3.990039   -0.942474    1.829705
H      4.305919   -0.874994    0.047416
H      4.371901   -2.453442    0.917886
H     -0.662458    2.722880   -0.091039
H      3.812837    4.229962    1.050341
H      3.934797    2.439813    1.047801
H     -0.331335   -2.688016   -0.138892
H     -5.068040   -1.796919   -1.331797
H     -5.107939    0.684635   -1.278166
H     -3.040468    1.968213   -0.709653
H     -3.752693   -3.896996   -1.046798
