49

C      5.263309    1.165212   -0.828695
C      4.842945   -0.083937   -0.045313
C      5.313772   -1.360810   -0.752346
C      3.337913   -0.102133    0.184819
C      2.802535   -0.045528    1.485862
C      1.415323   -0.047193    1.674044
C      0.527278   -0.075238    0.581300
C      1.063680   -0.198821   -0.720607
C      2.456380   -0.183172   -0.907373
C      0.166835   -0.378288   -1.881240
O      0.626344   -0.379253   -3.056020
C     -1.289422   -0.633454   -1.667009
C     -1.808854    0.202228   -0.480312
C     -0.992748   -0.072324    0.832111
C     -1.345935    1.039696    1.872350
C     -2.781946    1.588339    1.765415
C     -3.746484    0.546380    1.196852
C     -3.381175    0.128185   -0.265003
C     -4.076633    1.116661   -1.237525
C     -3.975574   -1.295424   -0.497818
O     -3.990774   -1.640343   -1.857176
O     -1.359616   -1.316405    1.383406
O      3.645905    0.014883    2.596058
H      6.370875    1.214209   -0.901185
H      4.843140    1.153141   -1.856785
H      4.908920    2.079705   -0.306312
H      5.379344   -0.046394    0.926698
H      4.912512   -1.421421   -1.785226
H      6.423305   -1.376763   -0.807073
H      4.981598   -2.256049   -0.184611
H      1.031649   -0.021836    2.685248
H      2.859387   -0.249931   -1.909610
H     -1.426857   -1.719053   -1.485028
H     -1.839201   -0.357944   -2.591832
H     -1.571484    1.258575   -0.753188
H     -1.201040    0.640672    2.900401
H     -0.653176    1.904265    1.762556
H     -3.131628    1.903704    2.772262
H     -2.790381    2.492323    1.119039
H     -4.783637    0.946020    1.247296
H     -3.727786   -0.335444    1.875990
H     -3.819802    0.890154   -2.293029
H     -3.768442    2.163299   -1.031923
H     -5.182118    1.058630   -1.135427
H     -3.399425   -2.054935    0.072305
H     -5.023474   -1.323722   -0.119461
H     -4.370003   -2.556322   -1.907145
H     -1.017347   -2.034158    0.789261
H      3.282013    0.060013    3.540998
