48

C      4.045081    0.775127   -1.122433
C      2.871121   -0.138659   -0.921548
O      2.221782   -0.478436   -1.897476
C      2.474869   -0.615519    0.466094
C      2.214321   -2.151501    0.520477
N      0.788469   -2.563431    0.421516
C      0.348661   -2.845062   -0.951510
C     -0.667886   -1.794215   -1.365219
C     -0.989088   -0.986693   -0.102994
C     -0.209028   -1.668802    1.047736
C      0.441683   -0.645264    1.990598
C      1.356552    0.241569    1.136952
C      0.495953    1.039741    0.161492
C     -0.644184    0.484184   -0.302818
N     -1.823761    1.254512   -0.560306
C     -2.906976    0.391988   -0.243927
C     -2.476402   -0.877125    0.090552
C     -3.387781   -1.880025    0.434326
C     -4.752707   -1.560305    0.481813
C     -5.189898   -0.259996    0.168450
C     -4.267477    0.732591   -0.202788
O     -4.722827    2.010702   -0.522817
C      0.886933    2.429136   -0.181596
O      0.393257    2.998968   -1.193695
O      1.858409    3.084033    0.582197
C      2.330120    4.388801    0.270030
H      4.508240    1.062896   -0.155707
H      4.807656    0.267276   -1.748939
H      3.709592    1.700199   -1.636670
H      3.377068   -0.472844    1.103241
H      2.846722   -2.685043   -0.223624
H      2.586821   -2.523366    1.500246
H     -0.135868   -3.845426   -0.959303
H      1.184750   -2.886228   -1.683322
H     -1.566950   -2.298678   -1.786155
H     -0.249981   -1.155755   -2.174080
H     -0.894363   -2.300554    1.652892
H     -0.342371   -0.031945    2.488793
H      1.019583   -1.159496    2.789612
H      1.840836    0.953719    1.841001
H     -1.886421    2.295125   -0.584754
H     -3.052259   -2.885617    0.651427
H     -5.474020   -2.320213    0.752881
H     -6.246462   -0.027505    0.206754
H     -4.098816    2.750858   -0.816764
H      1.489758    5.114276    0.299530
H      2.795470    4.392686   -0.738426
H      3.091821    4.689316    1.018263
