48

C      5.497243   -0.185888   -0.778742
C      4.652074    0.048938    0.479485
C      4.783026    1.496138    0.971408
C      3.196445   -0.326638    0.244216
C      2.457103    0.329397   -0.668551
C      1.052500   -0.108899   -0.944421
C      0.252106    0.513359   -2.052551
O      0.974372   -0.689893   -2.226735
C     -1.284205    0.285273   -1.962663
C     -1.679096    0.369083   -0.466076
C     -1.201520   -1.034682    0.026516
C      0.335774   -0.951493    0.110443
C      1.100414   -1.648356    0.969396
C      2.560637   -1.418899    1.036180
O      3.255654   -2.143621    1.797311
C     -1.973560   -1.510141    1.294273
C     -2.430442   -0.322551    2.137831
C     -3.461348    0.540622    1.383944
C     -3.183626    0.711544   -0.153873
C     -4.180313   -0.159472   -0.962286
C     -3.454948    2.188382   -0.532672
C     -1.514020   -1.853708   -1.180108
O     -1.625783   -3.107964   -1.202395
O     -1.582992   -1.063513   -2.312631
H      5.188086    0.491653   -1.602644
H      6.569977   -0.002178   -0.555714
H      5.388737   -1.238069   -1.118703
H      5.078976   -0.596803    1.276824
H      4.159100    1.647458    1.878219
H      4.462748    2.217516    0.190162
H      5.839747    1.712653    1.237362
H      2.883040    1.131192   -1.258646
H      0.689844    1.366009   -2.612671
H     -1.822045    0.997472   -2.619388
H     -1.082366    1.166792    0.040415
H      0.684168   -2.371176    1.651077
H     -2.876099   -2.092502    1.009957
H     -1.390064   -2.200266    1.927023
H     -2.883474   -0.691565    3.083637
H     -1.546412    0.295553    2.410133
H     -3.482305    1.527932    1.896901
H     -4.471139    0.103702    1.549724
H     -5.226401    0.146179   -0.743408
H     -4.026231   -0.040287   -2.055010
H     -4.094757   -1.233174   -0.708438
H     -2.743703    2.867868   -0.015254
H     -3.359316    2.354104   -1.625546
H     -4.485606    2.482923   -0.237389
