36

C     -4.485217    0.299373   -2.171514
C     -3.833600    0.588716   -0.822307
C     -3.851942   -0.657410    0.078167
C     -3.122833   -0.452935    1.424144
C     -3.865519    0.525099    2.336729
O     -1.789204    0.018093    1.220708
C     -0.749935   -0.782903    0.734878
O     -0.936922   -2.011486    0.513653
C      0.564267   -0.166184    0.491574
C      1.614995   -0.869887    0.046236
C      2.955115   -0.282505   -0.201127
C      4.068491   -1.138891   -0.237833
C      5.353985   -0.632583   -0.477681
C      5.534831    0.738255   -0.694366
C      4.429271    1.597355   -0.675407
C      3.147780    1.093585   -0.435760
O      6.813911    1.238411   -0.931609
O      6.455326   -1.486485   -0.502641
H     -4.466300    1.216049   -2.797931
H     -5.541974   -0.012894   -2.030572
H     -3.932471   -0.504518   -2.702865
H     -4.388651    1.418791   -0.336893
H     -2.786691    0.917506   -0.998002
H     -3.367028   -1.499227   -0.461790
H     -4.904806   -0.958785    0.272696
H     -3.088504   -1.431329    1.953950
H     -3.833720    1.555104    1.924724
H     -4.923507    0.211679    2.464579
H     -3.381841    0.539062    3.336440
H      0.658694    0.887808    0.711713
H      1.504004   -1.937322   -0.107241
H      3.940642   -2.201948   -0.071322
H      4.561089    2.657043   -0.853960
H      2.315669    1.783051   -0.460220
H      6.975472    2.225720   -1.092949
H      6.357124   -2.483407   -0.349694
