42

C      5.733899    0.203205    2.975796
C      4.804018   -0.264285    1.859685
C      4.896885    0.663136    0.638666
C      4.076178    0.153732   -0.557486
C      2.562584    0.351225   -0.362053
C      1.735719   -0.183586   -1.551144
C      1.883301    0.701601   -2.791241
O      0.352867   -0.224878   -1.195618
C     -0.210074   -1.214953   -0.379128
O      0.494651   -2.169852    0.046858
C     -1.634073   -1.158861   -0.014511
C     -2.428030   -0.156345   -0.414507
C     -3.865175   -0.051407   -0.060382
C     -4.637263   -1.169031    0.315976
C     -5.993905   -1.025611    0.630829
C     -6.597911    0.240579    0.565179
C     -5.838912    1.351409    0.176895
C     -4.485978    1.205504   -0.138657
O     -7.947424    0.389459    0.881279
O     -6.725468   -2.153424    1.002190
H      5.640307   -0.478066    3.847675
H      5.463327    1.231486    3.297636
H      6.789390    0.192631    2.629548
H      5.086105   -1.299723    1.569443
H      3.766378   -0.278226    2.253690
H      4.566480    1.688742    0.914513
H      5.960940    0.727369    0.320847
H      4.300819   -0.920215   -0.738681
H      4.405073    0.722349   -1.452328
H      2.247023   -0.190918    0.552432
H      2.338844    1.429001   -0.203013
H      2.074952   -1.209722   -1.818522
H      1.629786    1.756400   -2.551799
H      1.193803    0.345788   -3.586068
H      2.915697    0.652511   -3.193895
H     -2.016466   -1.948307    0.617817
H     -1.999193    0.652656   -0.994867
H     -4.207311   -2.160570    0.346045
H     -6.297324    2.330465    0.118400
H     -3.919495    2.079726   -0.436324
H     -8.405667    1.292359    0.840133
H     -7.709358   -2.103353    1.237796
