32

C     -4.424390    0.106004    1.565379
C     -3.100049   -0.592479    1.270833
C     -1.934263    0.406614    1.278798
C     -0.561169   -0.275506    1.145995
C     -0.350970   -1.079020   -0.153745
C     -0.556544   -0.282122   -1.457611
C      0.416601    0.893112   -1.639706
C      1.837815    0.425442   -1.766821
O      2.224371   -0.090450   -2.850791
N      2.739128    0.532844   -0.657135
C      4.102775    0.011898   -0.731383
C      4.817136    0.218507    0.566459
O      5.469545    1.276095    0.768933
O      4.717093   -0.732685    1.573694
H     -5.249744   -0.636445    1.541385
H     -4.398640    0.574937    2.572089
H     -4.626394    0.886931    0.801482
H     -3.176504   -1.079563    0.275702
H     -2.928943   -1.377821    2.038878
H     -1.942638    0.959198    2.243955
H     -2.069884    1.160227    0.474505
H     -0.421501   -0.964621    2.007280
H      0.229474    0.497553    1.236327
H     -1.039189   -1.950648   -0.159100
H      0.676907   -1.501221   -0.142994
H     -1.598979    0.095336   -1.509665
H     -0.438057   -0.979716   -2.315598
H      0.141604    1.437794   -2.568618
H      0.315593    1.618342   -0.805744
H      2.403414    0.988395    0.221974
H      4.072065   -1.075110   -0.959810
H      4.654337    0.528178   -1.546742
