27

C      4.095527    0.120572    0.074231
C      3.674165    1.433038   -0.157974
C      2.310617    1.722889   -0.266014
C      1.361208    0.698138   -0.138543
C      1.785684   -0.621222    0.091656
C      3.154644   -0.906153    0.197771
N      0.812325   -1.667258    0.203260
C     -0.591666   -1.379057    0.118947
C     -1.523371   -2.419811    0.208591
C     -2.887007   -2.150564    0.115135
C     -3.333498   -0.838707   -0.043167
C     -2.420192    0.228272   -0.112109
C     -1.028992   -0.048692   -0.064235
N     -0.040679    0.984171   -0.252585
C     -2.954673    1.605377   -0.188087
O     -4.001774    1.839320   -0.850116
O     -2.347881    2.639642    0.518913
H      5.151679   -0.101322    0.156591
H      4.404583    2.225871   -0.254842
H      1.994426    2.742587   -0.446172
H      3.490515   -1.920236    0.373874
H      1.130065   -2.652274    0.351610
H     -1.190856   -3.441503    0.342614
H     -3.602440   -2.960321    0.179461
H     -4.400171   -0.653387   -0.083242
H     -0.321288    1.939754   -0.562140
H     -2.720952    3.580874    0.486571
