19

C     -2.809121   -0.191360   -0.859900
C     -1.426840   -0.846781   -0.749873
C     -0.373983    0.164699   -0.340365
O     -0.193204    1.143128   -1.052637
C      0.419790    0.006611    0.938481
C      1.634056    0.895091    0.973986
O      1.585784    1.981665    1.610382
C      2.863581    0.537354    0.249209
O      2.923460   -0.529777   -0.418822
O      3.967025    1.383826    0.298719
O     -1.470339   -1.945902    0.127226
H     -2.801266    0.597589   -1.642045
H     -3.565654   -0.954434   -1.140818
H     -3.102750    0.265239    0.109727
H     -1.150940   -1.231681   -1.755188
H      0.747643   -1.048885    1.050503
H     -0.240950    0.245975    1.799278
H      4.821079    1.153819   -0.195227
H     -1.827371   -1.626174    0.997364
