40

C      6.590430    1.348138   -0.926183
O      5.216519    1.148716   -1.242474
C      4.259240    0.658559   -0.341654
C      2.940546    0.511426   -0.788642
C      1.935908    0.038437    0.073379
C      2.280885   -0.342409    1.386507
C      3.593631   -0.186775    1.838712
C      4.579359    0.312114    0.984301
O      1.313931   -0.862989    2.253127
C      0.021986   -1.252683    1.794626
C     -0.487111   -0.248006    0.749495
C      0.515839   -0.142153   -0.427136
O      0.163835    0.947999   -1.242247
C     -1.883891   -0.609567    0.273621
C     -2.945940    0.292469    0.464410
C     -4.246466   -0.022102    0.022490
C     -4.478020   -1.248671   -0.614465
C     -3.424159   -2.149498   -0.808654
C     -2.137504   -1.834082   -0.369911
O     -5.762523   -1.565455   -1.053512
O     -5.328826    0.854732    0.197055
C     -5.240775    2.130422    0.823516
H      7.058952    0.384392   -0.634784
H      7.114904    1.741931   -1.820726
H      6.689350    2.086198   -0.102344
H      2.700332    0.770131   -1.812686
H      3.852404   -0.463332    2.852933
H      5.587523    0.416332    1.361306
H      0.093460   -2.270801    1.355712
H     -0.672362   -1.290781    2.660907
H     -0.515904    0.746292    1.251550
H      0.505046   -1.084050   -1.023460
H     -0.546137    0.631126   -1.859667
H     -2.754294    1.236915    0.955316
H     -3.601789   -3.096738   -1.301864
H     -1.340815   -2.547380   -0.535525
H     -5.963046   -2.443702   -1.517626
H     -6.243836    2.603910    0.823870
H     -4.901024    2.017100    1.874686
H     -4.539661    2.783835    0.262500
