35

C     -0.321652   -2.997803    2.308034
C      0.102626   -1.639445    1.808998
C      0.919036   -1.762011    0.758338
C      1.050105   -3.177123    0.494572
O      1.730248   -3.694838   -0.429615
O      0.321906   -3.901989    1.416321
C      1.496011   -0.675476   -0.055786
C      2.293377    0.316035    0.537153
C      2.816816    1.354996   -0.238205
C      2.555881    1.408699   -1.611207
C      1.773612    0.411657   -2.209742
C      1.251052   -0.629283   -1.436528
O      3.078708    2.452896   -2.370519
C     -0.430892   -0.348925    2.375001
C     -1.241492    0.404416    1.350533
C     -2.427368   -0.150073    0.840307
C     -3.163277    0.531424   -0.133509
C     -2.724310    1.775984   -0.604692
C     -1.550171    2.336728   -0.092651
C     -0.814144    1.658887    0.883334
O     -3.446556    2.462021   -1.578367
H      0.033846   -3.162194    3.346944
H     -1.423648   -3.115209    2.239860
H      2.514600    0.282879    1.596284
H      3.425806    2.118848    0.228198
H      1.568030    0.443984   -3.272059
H      0.639289   -1.387170   -1.910359
H      2.907675    2.519942   -3.367071
H      0.411997    0.265031    2.755711
H     -1.082922   -0.571122    3.246908
H     -2.776033   -1.113383    1.190978
H     -4.072102    0.090576   -0.522825
H     -1.207147    3.298585   -0.452026
H      0.092062    2.109953    1.267200
H     -4.300969    2.082505   -1.969287
