34

C      4.705135   -0.865904    0.931039
O      4.022853   -0.802763   -0.317235
C      2.644679   -0.575737   -0.462078
C      2.096625   -0.536288   -1.755151
C      0.727354   -0.318844   -1.931230
C     -0.119093   -0.135194   -0.825911
C      0.427013   -0.153691    0.474472
C      1.799451   -0.389320    0.647812
C     -0.454445   -0.003273    1.693140
C     -1.745991    0.793310    1.402249
C     -2.494968    0.219822    0.166665
C     -1.569143    0.104883   -1.019543
O     -2.050631    0.185888   -2.182569
C     -3.136727   -1.146179    0.470730
O     -3.972266   -1.527814   -0.587881
C     -1.436701    2.296656    1.237183
O     -2.629262    3.028477    1.159703
O      2.898988   -0.713769   -2.882404
H      4.300659   -1.697585    1.545773
H      5.782586   -1.053246    0.745801
H      4.600167    0.097723    1.472917
H      0.327964   -0.296435   -2.937776
H      2.200728   -0.426293    1.651843
H      0.108561    0.495076    2.512985
H     -0.717763   -1.016825    2.062678
H     -2.404406    0.699783    2.295083
H     -3.322032    0.916287   -0.097200
H     -3.742191   -1.073664    1.401964
H     -2.349984   -1.919457    0.618796
H     -4.349067   -2.411222   -0.337604
H     -0.828455    2.470160    0.321392
H     -0.852650    2.653195    2.115304
H     -2.363720    3.977253    1.040166
H      3.896734   -0.875012   -2.815746
