22

C     -3.904687    0.379309   -0.218924
O     -2.651409   -0.112598    0.239792
C     -1.564900   -0.318123   -0.615468
O     -1.658941   -0.056877   -1.846819
C     -0.265950   -0.824304   -0.051380
C      0.762411    0.324214   -0.026524
C      2.028275   -0.034620    0.763094
C      2.932186    1.153037    0.867396
O      2.838873    1.933644    1.852238
O      3.846375    1.419052   -0.147133
N      0.222368   -1.945752   -0.858893
H     -3.776049    1.386555   -0.668844
H     -4.333744   -0.316043   -0.971191
H     -4.602797    0.455572    0.639744
H     -0.451725   -1.173438    0.990202
H      1.040881    0.599666   -1.068364
H      0.292785    1.214979    0.449404
H      2.580570   -0.851969    0.253792
H      1.755080   -0.380184    1.784086
H      4.454219    2.228021   -0.099554
H     -0.538719   -2.660811   -0.928536
H      0.994899   -2.419331   -0.338119
