9

C     -1.156650   -0.020351    0.181388
C      0.257489   -0.494807    0.030147
O      0.526899   -1.718817    0.163453
C      1.339508    0.453723   -0.270613
O      1.094296    1.681589   -0.406249
O      2.645003   -0.001697   -0.407386
F     -2.003738   -1.082272    0.446183
H     -1.217734    0.706150    1.018618
H     -1.485073    0.476481   -0.755542
