26

C      3.665948    0.177398   -0.266777
C      3.528356   -1.185349   -0.523775
C      2.262734   -1.770863   -0.528763
C      1.117773   -0.993766   -0.284612
C      1.245630    0.397666   -0.045334
C      2.538709    0.965796   -0.023635
C      0.080158    1.165357    0.196130
C     -1.182281    0.523321    0.200335
C     -2.387374    1.234356    0.393928
C     -3.614724    0.567300    0.392118
C     -3.665624   -0.810295    0.187907
C     -2.489678   -1.528499   -0.026529
C     -1.246251   -0.874052   -0.029751
N     -0.108978   -1.584338   -0.266652
N      0.177441    2.579673    0.434161
H      4.651443    0.625004   -0.250131
H      4.405505   -1.791503   -0.710298
H      2.175238   -2.833757   -0.717813
H      2.699780    2.011310    0.194442
H     -2.402855    2.305465    0.532086
H     -4.531212    1.122917    0.544323
H     -4.619638   -1.321625    0.186357
H     -2.548763   -2.596620   -0.196134
H     -0.179823   -2.614305   -0.440000
H      0.863363    3.172118   -0.082215
H     -0.434877    3.057294    1.130633
