50

C      5.471108    0.548927   -0.958695
C      3.995478    0.242340   -0.692530
C      3.306048    1.435478    0.015534
C      1.821555    1.108500    0.310512
C      1.263543    0.049351   -0.671379
C      1.994292    0.160754   -2.021985
O      3.389727   -0.112882   -1.933326
O      1.414493   -0.741013   -2.924891
O     -0.127210    0.241909   -0.881058
C     -0.893038   -0.473513    0.070428
C     -2.306732    0.132461    0.107173
C     -3.192387   -0.663624    1.080233
C     -3.114923   -2.168678    0.758567
C     -1.635643   -2.606193    0.652300
O     -0.962616   -1.832481   -0.326836
C     -1.536208   -4.087299    0.253199
O     -0.194562   -4.470867    0.112994
O     -3.750040   -2.902688    1.774737
O     -4.518339   -0.215483    0.965657
N     -2.234375    1.535232    0.530343
C     -2.400370    2.635678   -0.375235
O     -2.706291    2.435358   -1.583943
C     -2.167925    4.032444    0.101729
O      1.058974    2.287419    0.228715
O      3.972935    1.732348    1.216342
H      5.947814   -0.314062   -1.469523
H      5.566674    1.443324   -1.609854
H      6.015050    0.732457   -0.006953
H      3.958695   -0.643192   -0.018969
H      3.364512    2.312969   -0.673016
H      1.734757    0.681284    1.338551
H      1.487542   -0.972286   -0.276067
H      1.856646    1.195087   -2.416102
H      1.813628   -0.547430   -3.813181
H     -0.444843   -0.376529    1.091121
H     -2.751285    0.053956   -0.911215
H     -2.820290   -0.495242    2.119559
H     -3.610757   -2.357600   -0.224517
H     -1.141263   -2.495946    1.646990
H     -2.050032   -4.247208   -0.719336
H     -2.034943   -4.731702    1.012306
H      0.184349   -4.520663    1.028709
H     -4.716916   -2.929576    1.551303
H     -4.973704   -0.436850    1.819879
H     -1.933877    1.742291    1.510570
H     -1.078255    4.240186    0.117646
H     -2.577370    4.155483    1.126315
H     -2.668094    4.761305   -0.571201
H      1.209580    2.788338    1.072583
H      3.714888    2.658127    1.465813
