24

C     -3.603515    0.075577    1.153586
C     -2.534438    0.932482    0.547359
O     -2.742952    2.171365    0.442891
C     -1.253804    0.359787    0.056841
C     -0.045482    1.057411    0.271596
C      1.182450    0.531824   -0.185333
C      1.190550   -0.700851   -0.869440
C     -0.006399   -1.393533   -1.076352
C     -1.224139   -0.871365   -0.629411
O     -2.404400   -1.567232   -0.891609
O      2.381705   -1.229259   -1.367363
C      2.441955    1.283890    0.052687
O      2.451495    2.538170   -0.073467
C      3.717705    0.592568    0.425853
O     -0.060688    2.261131    0.973732
H     -4.333679   -0.221387    0.372351
H     -4.138194    0.641726    1.945348
H     -3.160629   -0.831852    1.615858
H      0.007365   -2.336880   -1.608034
H     -2.404202   -2.449982   -1.389263
H      2.406870   -2.110246   -1.867501
H      4.314783    0.389331   -0.487299
H      4.313018    1.238511    1.105304
H      3.504624   -0.361186    0.953322
