38

C      3.676755   -0.085222   -0.948888
C      2.473008   -0.835560   -0.386835
C      2.409802   -2.210154   -0.989779
O      2.847150   -3.202334   -0.349763
O      1.903263   -2.388725   -2.271465
O      1.299176   -0.111021   -0.710246
C      0.245093   -0.368494    0.206744
C     -1.085840   -0.363698   -0.567163
C     -1.471586    1.065736   -1.000195
O     -1.502647    1.991809    0.079740
C     -0.289145    2.077854    0.821572
C      0.241393    0.702618    1.315607
O     -0.476243    0.245440    2.438330
C      0.788725    2.934797    0.123655
O      0.280784    4.204373   -0.186937
O     -0.636409    1.511552   -2.036367
N     -2.163038   -0.972232    0.225231
C     -2.248680   -2.386738    0.449320
O     -1.419043   -3.171094   -0.086145
C     -3.353105   -2.942068    1.287715
H      3.730761    0.927056   -0.494414
H      3.588110    0.025276   -2.051268
H      4.616541   -0.628625   -0.711410
H      2.626235   -0.914420    0.716108
H      0.353055   -1.372444    0.683721
H     -0.959320   -0.969189   -1.493323
H     -2.507567    1.002615   -1.407065
H     -0.538383    2.649188    1.743341
H      1.288455    0.841359    1.661676
H     -1.441289    0.412827    2.286301
H      1.642065    3.073434    0.821460
H      1.206180    2.444796   -0.780385
H     -0.208193    4.116232   -1.045324
H     -1.077038    2.307987   -2.432432
H     -2.938292   -0.372088    0.589372
H     -4.307530   -2.887326    0.724154
H     -3.147220   -4.001358    1.551786
H     -3.445983   -2.352159    2.223569
