22

C     -3.072425    1.058551    0.719015
C     -2.945728   -0.265132    0.586651
C     -2.116998   -0.873727   -0.509525
C     -0.650154   -0.664992   -0.247357
C      0.042595    0.393142   -0.878129
C      1.391723    0.560586   -0.579287
C      2.042042   -0.250935    0.292237
C      1.399620   -1.299807    0.942500
C      0.034746   -1.504045    0.669526
O      3.360911    0.146996    0.395723
C      3.550690    1.279387   -0.464319
O      2.269233    1.509798   -1.066635
H     -3.681691    1.468397    1.517891
H     -2.573743    1.738868    0.035420
H     -3.463856   -0.919437    1.281545
H     -2.328386   -1.963731   -0.559170
H     -2.411861   -0.440561   -1.490512
H     -0.452281    1.060279   -1.572401
H      1.932258   -1.934763    1.638081
H     -0.490210   -2.308831    1.168935
H      4.304395    1.045312   -1.245118
H      3.859123    2.164645    0.130402
