17

C      1.784779   -0.380229    1.172569
C      2.322789    0.269428    0.059924
C      1.480093    0.745468   -0.947390
C      0.090906    0.578178   -0.845176
C     -0.456961   -0.062034    0.284637
C      0.402189   -0.551104    1.283777
C     -1.940733   -0.278767    0.400171
O     -2.307993   -1.390096   -0.367651
O     -0.743827    1.043313   -1.861292
H      2.439893   -0.754717    1.948544
H      3.393967    0.399716   -0.024524
H      1.907422    1.241078   -1.809809
H      0.002246   -1.064511    2.149495
H     -2.483543    0.625297    0.044227
H     -2.227117   -0.445377    1.463083
H     -3.291151   -1.481348   -0.267411
H     -0.372961    1.505706   -2.683173
