38

C     -3.326405    1.959730    0.562844
C     -2.005840    1.317952    1.015937
C     -0.815391    2.225535    0.642204
C      0.505602    1.566679    1.055661
C      0.791858    0.316793    0.202106
C     -0.482063   -0.450956   -0.092471
C     -0.606748   -1.384888   -1.039563
C     -2.019215   -1.836443   -1.186818
C     -2.812475   -0.780664   -0.416970
C     -1.800296   -0.174851    0.573061
C      0.515911   -1.910197   -1.889070
C      1.781283   -0.579345    0.913484
C      3.116566   -0.560802    0.712507
C      3.741177    0.360225   -0.307307
C      3.989037   -1.498390    1.465405
O      3.509602   -2.259716    2.348124
O      5.353249   -1.554645    1.204981
H     -3.323982    2.149503   -0.531202
H     -4.186087    1.309104    0.829483
H     -3.467356    2.934439    1.077323
H     -2.049821    1.309958    2.129319
H     -0.808258    2.424545   -0.452693
H     -0.911931    3.200853    1.167864
H      1.333077    2.297646    0.928240
H      0.456104    1.303033    2.136493
H      1.189027    0.663719   -0.775365
H     -2.141534   -2.838215   -0.721257
H     -2.322818   -1.866971   -2.255658
H     -3.168127   -0.027299   -1.150109
H     -3.682922   -1.228948    0.109284
H     -1.825042   -0.806993    1.490135
H      1.288099   -2.382615   -1.247197
H      0.135246   -2.673170   -2.599971
H      0.972359   -1.082730   -2.471046
H      1.368251   -1.244351    1.664043
H      4.847223    0.377736   -0.228189
H      3.472012    0.022518   -1.330302
H      3.390628    1.402220   -0.155040
