20

C      3.096744    0.200271   -0.117614
C      1.618456   -0.051603   -0.062347
C      0.715781    1.006210   -0.233546
C     -0.675533    0.795861   -0.158097
C     -1.157647   -0.508682    0.137777
C     -0.239488   -1.558804    0.312954
C      1.132952   -1.331459    0.221429
C     -2.626198   -0.811097    0.286742
C     -1.577678    1.955095   -0.389944
O     -1.154360    3.129516   -0.218946
O     -2.881984    1.777248   -0.834032
H      3.328414    1.013236   -0.838351
H      3.458669    0.494936    0.889477
H      3.639798   -0.711948   -0.444901
H      1.103738    1.996012   -0.444694
H     -0.585428   -2.561166    0.534244
H      1.818047   -2.156222    0.375334
H     -3.116185   -0.792872   -0.708962
H     -3.104189   -0.069728    0.960901
H     -2.793910   -1.814804    0.732578
