38

C      4.512310    0.974266   -0.556563
C      3.370963    0.545549    0.376965
C      3.906709   -0.358756    1.498513
C      2.196684   -0.096941   -0.410793
C      2.597665   -1.370781   -1.122498
O      2.639505   -2.465884   -0.500888
O      2.963211   -1.342850   -2.465887
N      1.050539   -0.336115    0.475809
C      0.151132    0.711530    0.867454
O      0.287197    1.876940    0.405388
C     -0.984130    0.415187    1.797323
C     -2.074383   -0.301062    1.061636
C     -2.260745   -1.678512    0.990427
N     -3.298155   -1.972610    0.173647
C     -3.759172   -0.794217   -0.280836
C     -4.811130   -0.584975   -1.171663
C     -5.112909    0.741030   -1.532826
C     -4.362557    1.815312   -1.004792
C     -3.304688    1.573891   -0.109322
C     -3.033571    0.249336    0.234446
H      4.992088    0.091027   -1.029278
H      5.284523    1.530725    0.016418
H      4.125992    1.644332   -1.353864
H      2.985563    1.471410    0.858595
H      4.661773    0.191883    2.099209
H      3.085846   -0.662795    2.181358
H      4.389097   -1.268099    1.082718
H      1.874436    0.622680   -1.195935
H      2.964854   -0.478928   -2.994665
H      0.903808   -1.285091    0.889155
H     -1.382104    1.357887    2.230854
H     -0.619815   -0.213846    2.637541
H     -1.661503   -2.423428    1.497694
H     -3.654817   -2.924449   -0.065599
H     -5.376100   -1.414903   -1.575945
H     -5.923255    0.938808   -2.222304
H     -4.601722    2.830833   -1.292299
H     -2.723142    2.391617    0.295958
