48

C     -3.653524    2.025607    3.853936
O     -2.802361    1.043619    3.275239
C     -2.256905    1.175598    1.995782
N     -2.518570    2.273279    1.233835
C     -1.994108    2.400199   -0.012112
C     -1.174492    1.397943   -0.527690
C     -0.902373    0.280963    0.269516
N     -1.457066    0.191742    1.508103
C     -0.068860   -0.826801   -0.235320
C     -0.393384   -2.176144   -0.213753
N      0.657715   -2.894012   -0.659939
C      1.600777   -1.974116   -0.947411
N      1.198113   -0.709766   -0.691560
C      2.020618    0.505901   -0.808121
C      3.320657    0.369555    0.003935
C      4.135937    1.679388   -0.008578
C      3.979881    2.500671   -1.311156
C      3.632920    1.595289   -2.506520
C      2.312632    0.825404   -2.294664
O      2.980742    3.473853   -1.138202
C     -1.668307   -2.797205    0.209811
C     -1.653046   -4.049316    0.847841
C     -2.848648   -4.654199    1.247824
C     -4.070187   -4.021476    1.003297
C     -4.097738   -2.786257    0.350918
C     -2.904593   -2.178082   -0.050851
F     -5.228481   -4.609931    1.390845
H     -3.115522    2.993605    3.937724
H     -3.955940    1.693678    4.868264
H     -4.564076    2.154349    3.231201
H     -2.219872    3.276360   -0.605060
H     -0.773283    1.484378   -1.529226
H      2.581611   -2.232654   -1.324538
H      1.472441    1.367398   -0.371966
H      3.943539   -0.446170   -0.423748
H      3.080956    0.095609    1.054525
H      3.837096    2.306041    0.860505
H      5.208406    1.423291    0.136370
H      4.951303    3.008176   -1.517005
H      3.563446    2.203937   -3.434208
H      4.461284    0.867149   -2.652905
H      2.359330   -0.110484   -2.892623
H      1.470541    1.427153   -2.700220
H      3.090960    4.132964   -1.872608
H     -0.715054   -4.552440    1.048796
H     -2.826679   -5.614113    1.747647
H     -5.044434   -2.302003    0.148532
H     -2.953401   -1.237933   -0.583740
