27

C     -1.861508   -0.948517   -0.992275
C     -1.927805    0.571996   -0.916412
C     -1.449173    1.070966    0.456435
C     -0.106815    0.427244    0.902542
C      1.174898    1.069007    0.360835
C      2.215952   -0.051503    0.489756
C      1.417513   -1.319402    0.835686
N     -0.013501   -1.024179    0.658795
C     -0.438115   -1.413812   -0.704643
O      2.933002   -0.225386   -0.706319
O      1.015540    1.473299   -0.975468
O     -2.429620    0.783287    1.422266
H     -2.562934   -1.400757   -0.257232
H     -2.161363   -1.280046   -2.009840
H     -1.311137    1.013662   -1.727206
H     -2.974493    0.902341   -1.092789
H     -1.305115    2.175903    0.403910
H     -0.063192    0.568956    2.008911
H      1.453031    1.944554    0.994929
H      2.917829    0.192796    1.321810
H      1.750870   -2.199152    0.238034
H      1.591018   -1.578345    1.903265
H      0.248866   -1.005034   -1.480465
H     -0.418001   -2.522528   -0.788617
H      3.714826   -0.796747   -0.487375
H      1.744495    2.119604   -1.166365
H     -3.155066    1.451794    1.307833
