22

C      3.597090    1.060489   -0.509820
O      2.499782    0.222425   -0.850962
C      1.984883   -0.737002    0.025466
O      2.477496   -0.888126    1.176940
C      0.806641   -1.556433   -0.391769
C     -0.467125   -0.818890   -0.085771
C     -1.093570   -0.973512    1.161842
C     -2.260655   -0.262342    1.457473
C     -2.807207    0.616147    0.516253
C     -2.178945    0.783880   -0.725327
C     -1.011892    0.073830   -1.023496
O     -3.970325    1.318029    0.824425
H      3.820672    1.733513   -1.362769
H      4.494426    0.442860   -0.293474
H      3.342520    1.677156    0.378120
H      0.874662   -1.770612   -1.480343
H      0.822244   -2.535839    0.134790
H     -0.677592   -1.642949    1.904681
H     -2.738896   -0.391359    2.420118
H     -2.591790    1.465945   -1.457649
H     -0.532028    0.220523   -1.983316
H     -4.390391    1.962268    0.164586
