31

C      1.149727   -2.714644    0.248440
C      0.428741   -1.354012    0.298505
C     -0.980657   -1.457830   -0.322110
C     -1.715866   -0.144026   -0.240215
C     -1.736158    0.730570   -1.340040
C     -2.386128    1.965025   -1.246289
C     -3.014376    2.337429   -0.054802
C     -2.991565    1.476897    1.046111
C     -2.342156    0.241763    0.956933
N      1.211209   -0.244158   -0.317149
C      1.729449   -0.552844   -1.666890
C      2.293139    0.235524    0.569218
C      2.654561    1.616439    0.226131
C      2.949969    2.750476   -0.056298
H      1.209378   -3.101078   -0.790825
H      2.174068   -2.628584    0.666295
H      0.593128   -3.457321    0.858982
H      0.259598   -1.129457    1.376434
H     -0.927610   -1.805063   -1.375590
H     -1.564848   -2.229963    0.225945
H     -1.247318    0.459026   -2.267143
H     -2.400165    2.634394   -2.096697
H     -3.515979    3.293860    0.016365
H     -3.474136    1.768442    1.970001
H     -2.323784   -0.412257    1.819982
H      0.930383   -0.951298   -2.322712
H      2.101257    0.375256   -2.149891
H      2.564502   -1.285519   -1.626375
H      1.967703    0.247865    1.631429
H      3.194967   -0.410931    0.496370
H      3.208966    3.746019   -0.304651
