10

C     -0.518177   -0.424690   -0.172082
O     -0.271780   -1.388394   -0.945732
N     -1.858044   -0.187456    0.256861
N      0.540224    0.428198    0.273606
N      1.860731    0.216273   -0.154039
H     -2.633367   -0.807537   -0.066700
H     -2.077527    0.606714    0.897953
H      0.317075    1.240114    0.893698
H      2.449273    0.986013    0.238852
H      2.191593   -0.669235    0.292336
