29

C     -3.498064    1.429884   -0.682932
C     -2.809989    0.095261   -0.358075
C     -3.651973   -0.690697    0.655454
C     -1.379887    0.301363    0.189305
C     -0.413259    0.857827   -0.865272
O      0.916595    0.895198   -0.350987
C      1.730578   -0.237619   -0.235930
O      1.330461   -1.361519   -0.648909
C      3.092081   -0.104549    0.385902
C      3.180041   -0.938908    1.667149
C      4.182526   -0.510269   -0.610288
H     -3.502130    2.096639    0.205969
H     -2.982601    1.943145   -1.520449
H     -4.547975    1.253637   -1.000731
H     -2.756342   -0.508765   -1.291078
H     -4.671706   -0.870262    0.252579
H     -3.736902   -0.130867    1.611829
H     -3.186860   -1.679069    0.858126
H     -0.986965   -0.677272    0.540792
H     -1.401056    0.986208    1.065505
H     -0.705236    1.895928   -1.124922
H     -0.445377    0.246679   -1.793894
H      3.254539    0.961752    0.657974
H      4.169128   -0.791577    2.151078
H      3.048480   -2.019917    1.444666
H      2.392355   -0.621216    2.383731
H      4.080760   -1.580034   -0.894207
H      4.112288    0.113291   -1.527331
H      5.186488   -0.354268   -0.160926
