30

C      3.421213    0.049030   -0.802361
C      2.526654    0.455823    0.368972
C      1.540492   -0.657060    0.764858
C      0.335784   -0.798518   -0.215712
C      0.108485   -2.285757   -0.540972
C     -0.958734   -0.159261    0.370144
C     -2.174660   -0.273917   -0.551087
C     -3.092303    0.889712   -0.187171
C     -2.262656    1.862293    0.647059
C     -0.834500    1.341689    0.616461
H      2.820046   -0.143870   -1.714554
H      4.000237   -0.863926   -0.547389
H      4.136636    0.869134   -1.022523
H      1.986458    1.390737    0.115720
H      3.179502    0.676288    1.241265
H      1.173458   -0.451303    1.794033
H      2.110957   -1.608961    0.849240
H      0.567853   -0.293035   -1.178615
H      1.038543   -2.734527   -0.951253
H     -0.188051   -2.843917    0.372983
H     -0.680255   -2.408335   -1.311968
H     -1.207868   -0.655184    1.336929
H     -2.693930   -1.247138   -0.411354
H     -1.865847   -0.174786   -1.615828
H     -3.960250    0.524513    0.404762
H     -3.471042    1.386181   -1.107385
H     -2.634198    1.870542    1.695669
H     -2.317563    2.894307    0.237014
H     -0.307238    1.560482    1.570169
H     -0.297222    1.828764   -0.227107
