35

C      7.370499    0.246681    0.238998
C      5.948551   -0.096765    0.242266
C      4.776585   -0.379466    0.244374
C      3.350448   -0.723193    0.246758
C      2.671358   -0.187919   -1.019759
C      1.204267   -0.630844   -1.135104
C      0.292959    0.069204   -0.115700
C     -1.177065   -0.301839   -0.347273
C     -2.088346    0.398703    0.671872
C     -3.554907   -0.047481    0.560950
C     -4.242759    0.490169   -0.704348
C     -5.730884    0.124831   -0.738320
O     -6.423609    0.742078    0.313339
H      7.565281    1.008087   -0.544082
H      7.654750    0.655103    1.230601
H      7.970214   -0.662524    0.027878
H      3.252057   -1.828510    0.295799
H      2.888648   -0.278780    1.152261
H      2.732641    0.922760   -1.043306
H      3.216094   -0.574065   -1.910026
H      1.133027   -1.733990   -1.012393
H      0.852047   -0.383117   -2.160577
H      0.581985   -0.233800    0.913169
H      0.411329    1.171306   -0.208506
H     -1.295405   -1.403908   -0.254113
H     -1.465506    0.000846   -1.376322
H     -1.733600    0.154110    1.697250
H     -2.019487    1.501695    0.546661
H     -3.613696   -1.157891    0.581629
H     -4.094351    0.334017    1.455154
H     -4.136080    1.595827   -0.754390
H     -3.762457    0.054556   -1.605599
H     -6.167819    0.431097   -1.715888
H     -5.848420   -0.976386   -0.650529
H     -6.518348    1.699407    0.067862
