16

C     -0.037608    1.287611   -0.112576
N     -1.119178    0.466791   -0.024887
C     -0.945238   -0.877682    0.090721
N      0.309029   -1.396419    0.118225
C      1.388806   -0.579249    0.030883
N      1.213521    0.761388   -0.084369
N      2.704278   -1.127911    0.060134
N     -2.074101   -1.746620    0.183317
N     -0.210429    2.699462   -0.234119
H     -2.083465    0.868980   -0.046329
H      3.538882   -0.504038   -0.006693
H      2.845295   -2.158700    0.148659
H     -3.045310   -1.363803    0.163676
H     -1.939185   -2.778206    0.271998
H     -1.165755    3.120170   -0.257319
H      0.620458    3.328226   -0.301323
