10

C      0.072258   -0.135068    0.582939
C      1.252101    0.493828   -0.091726
O      2.119509   -0.226529   -0.651970
O      1.366370    1.877075   -0.145700
N     -1.026884   -0.316029   -0.363395
H      0.366728   -1.119990    1.008261
H     -0.259992    0.514942    1.421861
H     -0.728513   -0.945525   -1.143939
H     -1.837090   -0.752481    0.132926
H     -1.324487    0.609777   -0.749256
