20

C     -3.394438   -0.191949   -0.480630
C     -2.987386    1.082840   -0.082556
C     -1.646659    1.324760    0.231742
C     -0.693988    0.294764    0.141292
C     -1.119766   -0.992915   -0.246761
C     -2.462529   -1.228832   -0.559132
C      0.714988    0.597562    0.495103
C      1.759687   -0.139675    0.091242
C      3.149016    0.199734    0.454505
O      3.399114    1.195543    1.186429
N      4.225847   -0.605973   -0.023554
H     -4.433039   -0.377964   -0.721883
H     -3.711341    1.884743   -0.016184
H     -1.350904    2.320842    0.538357
H     -0.432024   -1.825721   -0.288327
H     -2.782159   -2.219628   -0.855514
H      0.899111    1.491755    1.079730
H      1.610356   -1.001626   -0.543693
H      5.211347   -0.371916    0.230122
H      4.044765   -1.436345   -0.630287
