44

C     -4.526492    1.566786    5.199016
C     -4.093817    1.244781    3.791648
C     -2.868794    0.711036    3.596479
C     -2.334278    0.357249    2.229625
C     -0.937741   -0.266929    2.323623
C     -0.419474   -0.619731    0.948185
C      0.264711    0.309220    0.242611
C      0.840894    0.079868   -1.132586
C      2.226037   -0.571068   -1.047538
C      2.742033   -0.909723   -2.427032
C      3.274604    0.075429   -3.182278
C      3.822366   -0.063462   -4.549276
O      3.782619   -1.159679   -5.171966
O      4.389974    1.062903   -5.151791
C      4.933120    1.040436   -6.467429
C      2.642206   -2.337425   -2.901447
C     -0.743091   -1.980907    0.377004
C     -5.031944    1.517666    2.638662
H     -4.489263    0.648700    5.824222
H     -3.847100    2.330659    5.634788
H     -5.562600    1.964506    5.229465
H     -2.234345    0.530623    4.463365
H     -3.022869   -0.367803    1.742945
H     -2.284204    1.279305    1.609682
H     -0.982829   -1.182429    2.952711
H     -0.240001    0.438350    2.828320
H      0.426506    1.289908    0.681365
H      0.153388   -0.533744   -1.752089
H      0.938000    1.065353   -1.637604
H      2.176707   -1.486243   -0.422562
H      2.934762    0.117926   -0.536713
H      3.316144    1.075426   -2.763739
H      5.768304    0.309108   -6.522124
H      4.143051    0.767735   -7.200652
H      5.321668    2.049013   -6.718914
H      3.655014   -2.739283   -3.116703
H      2.007297   -2.391852   -3.810316
H      2.175019   -2.988634   -2.133311
H      0.187424   -2.533535    0.137033
H     -1.324940   -2.590327    1.099631
H     -1.359328   -1.870106   -0.538488
H     -4.564141    2.230639    1.928426
H     -5.268424    0.569949    2.110212
H     -5.986172    1.960306    2.989978
