39

C     -1.419681   -2.244991   -2.116642
C     -1.667172   -1.506693   -0.825140
C     -2.385223   -2.130387    0.123392
C     -2.615598   -1.532048    1.442487
O     -3.307062   -2.150066    2.294713
C     -1.985792   -0.223341    1.803459
C     -1.758396    0.669485    0.553731
C     -0.995449   -0.152426   -0.575194
C      0.435933   -0.469345   -0.155503
C      1.516182    0.194642   -0.592998
C      2.884517   -0.137043   -0.125347
C      3.833887    0.805308    0.050338
C      3.638156    2.268838   -0.067528
O      2.490586    2.784713   -0.017062
O      4.744934    3.105226   -0.179476
C      3.236808   -1.575560    0.157262
O     -1.017373    0.546093   -1.804990
C     -3.132310    1.161629    0.026818
C     -0.960414    1.917891    1.016983
H     -0.695784   -1.709877   -2.765466
H     -0.998483   -3.250808   -1.903730
H     -2.375455   -2.360520   -2.669885
H     -2.816173   -3.104741   -0.078397
H     -2.629190    0.303497    2.542979
H     -1.018024   -0.437884    2.306280
H      0.569975   -1.239317    0.596105
H      1.407194    0.996612   -1.307784
H      4.831854    0.485518    0.327351
H      5.686481    2.732395   -0.209350
H      3.064927   -1.794824    1.231844
H      4.299923   -1.785206   -0.089609
H      2.613255   -2.259382   -0.457101
H     -0.733920    1.482502   -1.659788
H     -3.004185    1.885700   -0.805477
H     -3.702323    1.673737    0.831978
H     -3.750446    0.318484   -0.346113
H     -0.803784    2.644340    0.194371
H     -1.512528    2.451589    1.820924
H      0.030156    1.636262    1.431565
