36

C     -1.504706   -2.534481    1.183797
O     -2.704336   -1.769613    1.139298
C     -2.830535   -0.422085    0.747607
C     -4.110222    0.149431    0.819858
C     -4.317920    1.466482    0.421239
C     -3.273027    2.250458   -0.066806
C     -1.949981    1.725490   -0.086789
C     -1.744236    0.369802    0.295498
O     -0.526508   -0.157843    0.229863
C      0.553065    0.507373   -0.161489
C      0.452840    1.868640   -0.481231
C     -0.804722    2.484865   -0.430218
O     -0.879535    3.721612   -0.653441
O      1.597985    2.600189   -0.808524
C      1.841185   -0.218809   -0.220358
C      2.709108   -0.075299   -1.317648
C      3.913408   -0.792143   -1.370090
C      4.252329   -1.665179   -0.328828
C      3.382845   -1.823477    0.758110
C      2.182575   -1.109972    0.808944
O      5.451255   -2.373736   -0.382847
O      4.775050   -0.645286   -2.455736
O     -3.615982    3.519485   -0.542819
O     -5.203466   -0.586128    1.280024
H     -0.788149   -2.079868    1.898629
H     -1.060099   -2.616241    0.169717
H     -1.745086   -3.557300    1.538971
H     -5.319442    1.877961    0.457713
H      1.566156    3.585941   -1.039313
H      2.443622    0.573107   -2.143162
H      3.636465   -2.499558    1.564709
H      1.527407   -1.241640    1.660601
H      5.722601   -3.013268    0.354904
H      4.557673   -0.022281   -3.224831
H     -3.065054    4.052193   -1.199423
H     -5.122563   -1.548824    1.584072
