36

C     -0.036259    2.720636   -0.959787
C     -0.925007    1.531690   -0.684751
C     -2.213946    1.777749   -0.393366
C     -3.200782    0.697607   -0.257516
O     -4.395058    0.976260    0.029465
C     -2.809253   -0.724861   -0.519872
C     -1.318755   -0.967981   -0.167300
C     -0.427916    0.094105   -0.935796
C      1.046368   -0.081389   -0.558915
C      1.599916    0.428057    0.556707
C      3.054173    0.202513    0.886346
C      3.285342   -1.245594    1.316023
O      3.441382    1.053498    1.932611
O     -0.556672   -0.157466   -2.318466
C     -0.952515   -2.409092   -0.601076
C     -1.152491   -0.884858    1.375090
H      0.941732    2.418693   -1.386664
H     -0.522349    3.397865   -1.694369
H      0.142817    3.278428   -0.016588
H     -2.554425    2.799440   -0.266566
H     -2.990737   -0.936569   -1.596202
H     -3.465507   -1.406501    0.065800
H      1.671665   -0.666513   -1.228833
H      1.001759    1.031887    1.232813
H      3.678117    0.410578   -0.014255
H      2.663412   -1.490343    2.204043
H      3.028587   -1.943420    0.490721
H      4.354641   -1.393175    1.577501
H      3.522484    1.964468    1.545176
H      0.017161    0.488599   -2.809762
H      0.106438   -2.641448   -0.359070
H     -1.099454   -2.551807   -1.692745
H     -1.592534   -3.149765   -0.074110
H     -1.287025    0.152839    1.744680
H     -1.902407   -1.527375    1.885023
H     -0.152899   -1.246753    1.694010
