16

C     -0.368939    1.069837    0.048389
C     -1.494758    1.204305    0.765414
C     -2.476571    0.135619    1.028317
O     -3.637499    0.448404    1.403670
O     -2.124850   -1.208299    0.939217
C     -0.019494   -0.105296   -0.780740
O     -0.925288   -0.717795   -1.407188
C      1.379677   -0.535188   -0.977507
C      2.401460   -0.073507   -0.249143
O      3.701204   -0.522396   -0.475810
H      0.312256    1.911667    0.029138
H     -1.682425    2.166086    1.227839
H     -2.798091   -1.937060    1.143745
H      1.575255   -1.285469   -1.734386
H      2.243545    0.652814    0.536403
H      3.914519   -1.203721   -1.195490
