31

C      2.260943    0.920167   -0.703778
C      3.634510    1.174049   -0.717825
C      4.509841    0.370028    0.022513
C      4.000167   -0.692955    0.785668
C      2.623558   -0.946750    0.796543
C      1.739099   -0.149712    0.043612
C      0.274193   -0.392304    0.047487
C     -0.264334   -1.666971    0.270701
C     -1.648837   -1.842019    0.265274
O     -2.100566   -3.007832    0.406519
C     -2.497902   -0.727368    0.066265
C     -3.923953   -0.779518    0.081149
C     -4.659602    0.366997   -0.243806
C     -4.024034    1.576138   -0.523327
C     -2.630895    1.651855   -0.487886
C     -1.868059    0.517401   -0.201032
O     -0.543788    0.627540   -0.191379
O     -4.788725    2.700256   -0.827728
O     -4.660654   -1.915375    0.429909
O      4.844208   -1.505061    1.542672
O      5.880210    0.625078    0.005192
H      1.606766    1.554877   -1.288899
H      4.018200    1.997900   -1.306191
H      2.253442   -1.752733    1.416050
H      0.377202   -2.528380    0.406994
H     -5.741899    0.323193   -0.250932
H     -2.136208    2.592813   -0.695743
H     -4.358275    3.594402   -1.033073
H     -4.292740   -2.710214    0.929737
H      5.846656   -1.362206    1.569946
H      6.271478    1.386705   -0.536788
