35

C      0.548165   -3.670003   -0.785041
O      0.800794   -2.311628   -0.441794
C     -0.156989   -1.286347   -0.302774
C      0.299392    0.014492   -0.015282
O     -0.569497    0.992014    0.207842
C     -1.883170    0.836834    0.125104
C     -2.703355    1.932372    0.406366
C     -4.091943    1.810618    0.341358
C     -4.662864    0.597089   -0.038613
C     -3.864721   -0.506385   -0.364378
C     -2.445700   -0.412945   -0.235410
C     -1.552639   -1.500096   -0.399245
O     -1.992704   -2.663249   -0.583641
O     -4.531343   -1.641502   -0.834882
O     -4.915040    2.893658    0.642290
C      1.741677    0.336970    0.077887
C      2.200000    1.165084    1.115549
C      3.557670    1.503486    1.210122
C      4.464223    1.026143    0.255406
C      4.009067    0.217320   -0.793981
C      2.656191   -0.119797   -0.887504
O      5.813026    1.363178    0.353084
O      4.011956    2.314064    2.248949
H      1.516768   -4.203419   -0.871723
H      0.028837   -3.729199   -1.764723
H     -0.048446   -4.163307    0.010630
H     -2.257471    2.878405    0.688441
H     -5.740536    0.518772   -0.114826
H     -4.102533   -2.368622   -1.387881
H     -4.531600    3.790145    0.918392
H      1.505104    1.538580    1.858245
H      4.702131   -0.143949   -1.543103
H      2.322955   -0.718013   -1.726041
H      6.491899    1.033960   -0.323414
H      3.380696    2.675275    2.954591
