32

C     -2.369568   -1.225628   -0.980893
C     -3.677261   -1.028712   -1.431817
C     -4.319373    0.199333   -1.225554
C     -3.639652    1.238043   -0.567703
C     -2.329541    1.037500   -0.117908
C     -1.689163   -0.198667   -0.303628
C     -0.294185   -0.374292    0.161430
C      0.140677   -1.551935    0.793808
C      1.484619   -1.657529    1.186525
O      1.855258   -2.691809    1.800739
C      2.380085   -0.592028    0.927694
C      3.771483   -0.607387    1.245796
C      4.534388    0.552664    1.063291
C      3.973234    1.704801    0.514373
C      2.627666    1.711848    0.144265
C      1.832082    0.581727    0.347812
O      0.554171    0.633025   -0.008143
O      4.765888    2.835985    0.332257
O      4.452684   -1.734933    1.713749
O     -0.764897   -2.582830    1.059365
O     -4.247729    2.474498   -0.352956
O     -5.624807    0.391941   -1.674926
H     -1.884214   -2.171498   -1.184263
H     -4.188601   -1.829956   -1.950117
H     -1.815691    1.846032    0.388448
H      5.585759    0.547481    1.323907
H      2.193104    2.602536   -0.292960
H      4.389668    3.688205   -0.066652
H      4.123129   -2.684018    1.623420
H     -0.490872   -3.442549    1.519548
H     -5.193277    2.669620   -0.659412
H     -6.135064   -0.341470   -2.153095
