25

C     -3.374970    0.088082   -1.295353
C     -2.601722   -0.180392   -0.001235
C     -3.006013   -1.527836    0.607478
C     -1.116666   -0.132610   -0.261813
O     -0.570204   -1.069563   -0.906170
C     -0.337796    1.058623    0.147428
C      0.996740    1.113243    0.270109
C      1.890268   -0.063333    0.186140
C      3.206040   -0.000033   -0.096322
C      3.896492    1.235178   -0.537922
O      3.266753    2.160036   -1.116211
O      5.273171    1.364769   -0.372773
O      3.976625   -1.159056    0.012440
H     -4.467420    0.094839   -1.093537
H     -3.092632    1.080048   -1.708923
H     -3.155751   -0.693249   -2.054874
H     -2.873164    0.611273    0.732211
H     -4.089209   -1.524780    0.854349
H     -2.437153   -1.708230    1.544784
H     -2.805107   -2.360097   -0.101216
H     -0.892300    1.968741    0.342882
H      1.429415    2.070646    0.531261
H      1.478382   -1.027659    0.454769
H      5.823721    0.647711    0.083988
H      3.582499   -2.046353    0.304442
