49

C     -3.411948    1.167938    1.023620
C     -2.682530   -0.080819    0.498982
C     -3.589950   -0.971407   -0.415444
C     -2.866338   -2.282187   -0.867465
C     -1.353273   -2.107664   -1.178506
C     -0.682858   -1.130583   -0.180981
C     -1.384081    0.219988   -0.288124
C     -0.385905    1.221288    0.341822
C      1.031835    0.627362    0.069069
C      0.802898   -0.844898   -0.432948
C      1.759467   -1.907099    0.192334
C      3.199510   -1.378869    0.431941
C      3.254321    0.149246    0.734120
C      1.919534    0.607630    1.324269
C      3.292210    0.928534   -0.556167
C      4.381747    1.137512   -1.305756
C      1.926382    1.393448   -0.938937
O      4.309373    0.495591    1.597502
C     -0.602219    2.632228   -0.147229
O     -0.780450    2.870869   -1.372670
O     -0.564803    3.685157    0.761321
O     -0.957566   -1.543516    1.161224
C     -2.126682   -0.939751    1.585133
O     -2.667688   -1.166527    2.699434
O     -3.989872   -0.256569   -1.558732
H     -3.615855    1.872599    0.190056
H     -4.377698    0.878776    1.489854
H     -2.807928    1.696309    1.790359
H     -4.494166   -1.279879    0.162821
H     -3.379079   -2.710122   -1.755999
H     -2.966339   -3.035569   -0.055188
H     -0.851045   -3.097450   -1.124325
H     -1.237692   -1.727747   -2.217490
H     -1.579340    0.492087   -1.351167
H     -0.544077    1.233519    1.443034
H      0.960580   -0.887498   -1.534146
H      1.364546   -2.251136    1.171629
H      1.797744   -2.804263   -0.462772
H      3.634776   -1.938685    1.288694
H      3.830660   -1.615432   -0.453057
H      1.539924   -0.068298    2.122350
H      2.009425    1.633219    1.751958
H      5.349358    0.750447   -1.005761
H      4.309678    1.693790   -2.235014
H      1.685327    1.160379   -1.998635
H      1.890929    2.492956   -0.786017
H      5.135731    0.073332    1.245798
H     -0.693487    4.641571    0.453587
H     -4.793087    0.270193   -1.308381
