50

C     -2.981002   -1.096708    1.871058
C     -2.530520   -0.663687    0.461239
C     -1.253975    0.213453    0.442736
C     -0.062230   -0.242380    1.321670
C      1.216786    0.000004    0.459232
C      2.179357    1.117650    0.938865
C      3.462846    0.720336    0.289516
C      4.546539    1.504025    0.238498
C      3.355775   -0.645321   -0.329703
C      2.149269   -1.222498    0.420297
C      3.034206   -0.499226   -1.846323
C      1.514221   -0.382884   -2.137581
C      0.712005    0.315774   -0.995487
C     -0.782493   -0.036985   -0.988911
C     -1.668016    0.742892   -1.998303
C     -3.111944    1.045591   -1.472397
C     -3.655122    0.067790   -0.360459
O     -4.505140    0.788717    0.502041
O     -3.149711    2.367934   -0.990070
O     -1.018251   -1.431477   -1.174943
C     -2.055915   -1.816659   -0.356892
O     -2.557602   -2.971930   -0.364810
O      4.522270   -1.395618   -0.100585
C     -0.065175    0.419992    2.677368
O     -0.259396    1.661043    2.789108
O      0.187598   -0.342822    3.813048
H     -3.130841   -0.205615    2.516777
H     -3.935829   -1.661044    1.810561
H     -2.232367   -1.757390    2.355116
H     -1.471157    1.290675    0.621782
H     -0.147905   -1.337369    1.496702
H      1.853008    2.135207    0.633468
H      2.338444    1.095543    2.037862
H      4.537107    2.486578    0.699579
H      5.446754    1.170019   -0.267344
H      1.699662   -2.102811   -0.090204
H      2.437224   -1.526637    1.453271
H      3.424510   -1.381883   -2.398429
H      3.558318    0.387189   -2.267534
H      1.359884    0.168784   -3.090172
H      1.128939   -1.410818   -2.305594
H      0.792392    1.410797   -1.175483
H     -1.177575    1.697858   -2.286554
H     -1.742239    0.149244   -2.935926
H     -3.810969    0.971258   -2.339594
H     -4.262799   -0.709315   -0.888802
H     -5.248090    0.184659    0.765235
H     -3.182451    2.967803   -1.781018
H      4.337770   -2.322928   -0.403786
H      0.203831    0.083190    4.731872
