49

C      0.659128   -3.747720    1.604470
O      0.155697   -2.802036    0.667869
C      0.875295   -1.699091    0.178674
C      2.208843   -1.458878    0.550843
C      2.899539   -0.342839    0.065729
C      2.254529    0.517459   -0.838838
C      0.919623    0.291529   -1.230283
C      0.220721   -0.818714   -0.696411
O     -1.123806   -1.110619   -0.993041
C     -2.103740   -0.213919   -1.519797
C     -3.487982   -0.893036   -1.510019
C     -3.948020   -1.192106   -0.060381
C     -3.210341   -0.322849    0.982898
C     -2.881704    1.066852    0.372904
O     -2.083392    1.018556   -0.810017
C     -2.163288    1.960106    1.398962
O     -1.888237    3.219598    0.842410
O     -4.033829   -0.180856    2.114613
O     -3.803340   -2.557107    0.249263
O     -4.425256   -0.050461   -2.133271
O      0.283969    1.138011   -2.152829
C      0.851090    2.322511   -2.703790
C      4.305010   -0.135390    0.496400
C      4.915855    1.058323    0.486919
C      6.306111    1.234390    0.948879
O      6.971777    0.256220    1.379897
O      6.898139    2.493324    0.915749
H      0.922832   -3.238047    2.553712
H      1.546022   -4.264424    1.185774
H     -0.124402   -4.504554    1.813484
H      2.712755   -2.131989    1.232129
H      2.800366    1.343879   -1.267257
H     -1.850189   -0.008857   -2.581388
H     -3.426573   -1.850713   -2.079119
H     -5.035304   -0.963275    0.004849
H     -2.252325   -0.822212    1.268247
H     -3.843576    1.566837    0.114379
H     -1.223114    1.470370    1.746742
H     -2.812879    2.115359    2.286272
H     -1.030172    3.133418    0.348346
H     -3.442545   -0.158699    2.911299
H     -2.845611   -2.795255    0.134782
H     -4.258259   -0.105345   -3.110201
H      1.142519    3.020759   -1.890190
H      1.733634    2.067936   -3.328973
H      0.094151    2.822838   -3.343068
H      4.839683   -0.995974    0.884594
H      4.386103    1.944085    0.164490
H      6.394492    3.302605    0.568702
