21

C     -1.811608   -0.472350    1.338164
C     -1.338803    0.296625    0.097563
C     -2.033185   -0.216002   -1.171028
C      0.177383    0.256094   -0.040966
C      0.810788   -0.928017   -0.195591
C      2.273402   -1.124084   -0.185777
O      2.756061   -2.166987   -0.701467
O      3.120438   -0.218169    0.446734
C      0.903260    1.546400   -0.076924
O      0.554754    2.487586    0.685372
O      1.935261    1.749326   -0.989467
H     -1.605363   -1.559222    1.241338
H     -1.295506   -0.087389    2.243623
H     -2.905108   -0.333485    1.476876
H     -1.666714    1.351270    0.232376
H     -1.670895    0.347579   -2.057350
H     -3.130903   -0.065399   -1.089615
H     -1.839167   -1.297828   -1.328736
H      0.219190   -1.829936   -0.290413
H      4.121562   -0.370956    0.470227
H      2.425151    2.634944   -1.032038
