42

C      3.435414   -4.067581   -0.108378
O      3.903630   -2.725419   -0.021724
C      3.077081   -1.589433   -0.020850
C      3.683166   -0.328917    0.070005
C      2.883358    0.844785    0.051814
C      1.461039    0.729877    0.059882
C      0.882515   -0.552171   -0.067026
C      1.683089   -1.690197   -0.115980
O     -0.433091   -0.701400   -0.135598
C     -1.290169    0.308971   -0.068068
C     -0.822186    1.618394    0.150909
C      0.575297    1.822545    0.235727
O      1.021111    2.962955    0.523725
O     -1.772444    2.647216    0.312545
C     -1.501809    4.035853    0.471543
C     -2.733098    0.002387   -0.198084
C     -3.261076   -1.128280    0.445960
C     -4.619597   -1.453053    0.318448
C     -5.457893   -0.649633   -0.472600
C     -4.930132    0.464498   -1.132208
C     -3.576683    0.786655   -1.003823
O     -6.812916   -0.945000   -0.618256
O     -5.137160   -2.569761    0.973010
O      3.518595    2.086452   -0.026249
O      5.089460   -0.315323    0.155681
C      5.918801    0.821731    0.369271
H      2.773383   -4.297613    0.753032
H      2.889588   -4.220830   -1.063242
H      4.304206   -4.756656   -0.082072
H      1.203536   -2.655902   -0.205185
H     -0.971559    4.217161    1.429808
H     -2.463831    4.587191    0.499417
H     -0.908224    4.413163   -0.387727
H     -2.619843   -1.751911    1.057458
H     -5.569969    1.078254   -1.753580
H     -3.186675    1.634741   -1.552161
H     -7.242073   -1.741151   -0.162165
H     -4.553692   -3.165451    1.548865
H      3.099953    2.910821   -0.433294
H      5.606952    1.359746    1.289323
H      5.888392    1.491721   -0.515122
H      6.965555    0.480569    0.504113
