43

C     -4.639346   -0.133391   -0.694485
C     -3.725379   -0.051410   -1.924477
C     -2.369583    0.628267   -1.577716
C     -1.986129    0.480708   -0.079328
C     -2.461923   -0.868934    0.477348
C     -4.011737   -1.024515    0.423352
C     -4.601039   -0.648426    1.770403
O     -4.508011    0.534797    2.196986
O     -5.219384   -1.613289    2.561828
O     -4.288111   -2.380863    0.150882
O     -0.572652    0.588602    0.100095
C      0.133218    1.792233   -0.024289
O     -0.477008    2.870088   -0.259698
C      1.596376    1.816126    0.124688
C      2.303226    0.699470    0.345848
C      3.780057    0.673125    0.489076
C      4.454057   -0.540709    0.281951
C      5.845740   -0.628498    0.412284
C      6.585525    0.522873    0.768809
C      5.912726    1.728533    0.991402
C      4.524999    1.807712    0.859095
O      7.974223    0.513407    0.914681
O      6.445309   -1.868357    0.181403
O     -1.355045    0.078747   -2.380813
O     -4.381387    0.668218   -2.935979
H     -4.815141    0.902242   -0.326324
H     -5.632393   -0.533152   -0.995947
H     -3.543016   -1.095999   -2.273690
H     -2.449629    1.722212   -1.782700
H     -2.481476    1.285325    0.509804
H     -1.981787   -1.673859   -0.123850
H     -2.086852   -0.994867    1.517859
H     -5.605247   -1.373808    3.467319
H     -5.273967   -2.500360    0.118738
H      2.090950    2.772040    0.020354
H      1.783593   -0.251239    0.382618
H      3.896773   -1.428975    0.007877
H      6.470938    2.611619    1.276353
H      4.045013    2.752697    1.071307
H      8.551209   -0.303232    0.773966
H      7.438252   -2.037493    0.252525
H     -1.450788    0.481831   -3.282961
H     -3.915152    0.457064   -3.786594
