17

C     -2.680494    0.277921    0.047255
C     -1.264273    0.175813   -0.511381
C     -0.336803   -0.558619    0.464072
C      1.046820   -0.698233   -0.102060
C      1.863218    0.351870   -0.220404
C      3.218391    0.202018   -0.760299
O      3.969639    1.206748   -0.860487
H     -3.102450   -0.735499    0.217599
H     -3.328213    0.814732   -0.677510
H     -2.677419    0.840194    1.005352
H     -0.880539    1.201944   -0.700212
H     -1.297269   -0.370939   -1.479233
H     -0.742814   -1.575116    0.658812
H     -0.289512   -0.015704    1.433667
H      1.388612   -1.685962   -0.390102
H      1.529311    1.336019    0.087313
H      3.583795   -0.767189   -1.076147
