33

C     -1.057286    3.555709   -0.298660
O     -1.267689    2.148950   -0.241354
C     -0.275990    1.156075   -0.108682
C     -0.683329   -0.193795   -0.066134
O      0.211074   -1.157456    0.125383
C      1.510867   -0.931912    0.257430
C      2.371478   -2.016487    0.450964
C      3.745148   -1.813083    0.586623
C      4.265379   -0.515680    0.528925
C      3.418080    0.585786    0.337250
C      2.021855    0.384305    0.199813
C      1.104445    1.440813    0.013749
O      1.515935    2.630402   -0.037390
O      3.968781    1.867090    0.285635
O      4.585868   -2.907358    0.778043
C     -2.102799   -0.588678   -0.212425
C     -2.916737   -0.035864   -1.218891
C     -4.247606   -0.443487   -1.353397
C     -4.773677   -1.413378   -0.496533
C     -3.967298   -1.983732    0.491423
C     -2.635698   -1.579764    0.629367
H     -0.434122    3.815611   -1.180024
H     -0.584306    3.912517    0.640313
H     -2.038966    4.060560   -0.406682
H      1.970818   -3.021905    0.494353
H      5.332101   -0.362002    0.634181
H      4.965276    2.023819    0.382767
H      5.587756   -2.794479    0.879972
H     -2.519562    0.692125   -1.914739
H     -4.868915   -0.013200   -2.128221
H     -5.803564   -1.728656   -0.603269
H     -4.373479   -2.740719    1.149825
H     -2.023838   -2.032129    1.400386
