29

C      2.433159   -0.552569   -0.928691
C      3.825541   -0.651164   -1.008940
C      4.633036    0.008583   -0.077685
C      4.041570    0.772341    0.936915
C      2.649558    0.873544    1.019462
C      1.831179    0.206580    0.090693
C      0.353482    0.323149    0.175528
C     -0.241365    1.586028    0.327918
O     -1.561423    1.715229    0.399543
C     -2.388563    0.677902    0.334049
C     -1.880643   -0.632267    0.186167
C     -0.487477   -0.804860    0.112492
O      0.005943   -1.962388    0.010817
C     -2.775200   -1.716498    0.123292
C     -4.153318   -1.495237    0.203967
C     -4.653729   -0.197326    0.348871
C     -3.769637    0.888161    0.413972
O     -6.030050    0.003078    0.427507
O      6.018803   -0.099362   -0.169739
H      1.827090   -1.055208   -1.672085
H      4.277662   -1.237450   -1.798834
H      4.659013    1.286765    1.662253
H      2.210594    1.461759    1.815913
H      0.372395    2.476190    0.380508
H     -2.414099   -2.731473    0.011384
H     -4.834835   -2.334978    0.153945
H     -4.154698    1.894078    0.527044
H     -6.425080    0.930317    0.532748
H      6.631093    0.367077    0.489371
