35

C      5.485817    0.107975    0.720191
C      3.984537   -0.019734    0.635062
C      3.262765    0.675268   -0.368598
C      1.852313    0.548452   -0.440013
C      1.182631   -0.273450    0.492610
C      1.900295   -0.950688    1.476120
C      3.290134   -0.831596    1.555372
O      3.980557   -1.523054    2.551693
O     -0.136978   -0.416468    0.446768
C     -0.907237    0.183386   -0.455358
C     -0.327440    1.041628   -1.407995
C      1.065211    1.215897   -1.404504
O      1.593709    1.974846   -2.261951
O     -1.131646    1.729396   -2.320515
C     -2.365678   -0.067697   -0.405671
C     -3.013654   -0.133170    0.838910
C     -4.389901   -0.392181    0.913320
C     -5.124987   -0.602628   -0.259816
C     -4.480261   -0.559414   -1.502730
C     -3.108944   -0.300670   -1.576366
O     -6.492791   -0.858648   -0.182481
O     -5.032421   -0.442856    2.149118
O      3.928458    1.488377   -1.293414
H      5.921212   -0.487774    1.548146
H      5.946018   -0.247933   -0.225524
H      5.762077    1.169757    0.890881
H      1.372019   -1.576850    2.184859
H      3.500785   -2.111729    3.222758
H     -0.748499    2.361548   -3.013038
H     -2.452663    0.028742    1.751625
H     -5.039835   -0.735110   -2.412710
H     -2.627845   -0.308080   -2.545910
H     -7.050325   -1.016221   -1.013883
H     -4.527962   -0.295293    3.015514
H      4.930529    1.625972   -1.302468
