27

C      3.441700   -1.594427   -0.158018
C      2.126756   -2.043955   -0.104959
C      1.070023   -1.133283   -0.050232
C      1.320903    0.263690   -0.036866
C      2.678143    0.710092   -0.018289
C      3.719778   -0.226076   -0.112509
O      5.041561    0.217415   -0.139128
O      3.050026    2.050985    0.123406
C      0.195328    1.125278   -0.080354
O      0.343878    2.369988   -0.199486
C     -1.108446    0.581201   -0.033290
C     -2.280203    1.380029   -0.027242
C     -3.541617    0.767807    0.015287
C     -3.656287   -0.625692    0.051473
C     -2.507145   -1.416482    0.043410
C     -1.240839   -0.825547   -0.000066
O     -0.169433   -1.604545   -0.021409
O     -4.908723   -1.234345    0.094615
O     -2.202175    2.773169   -0.057841
H      4.248986   -2.313385   -0.217598
H      1.925398   -3.107927   -0.123708
H      5.818452   -0.430509   -0.199668
H      2.463425    2.768556    0.522499
H     -4.436012    1.378239    0.021388
H     -2.598261   -2.495549    0.067932
H     -5.762936   -0.689193    0.101284
H     -3.032281    3.354469   -0.052256
