34

C      4.992652    2.006726   -0.329597
O      4.854546    0.605437   -0.120652
C      3.650015   -0.119338   -0.025871
C      2.366828    0.490795    0.011111
C      1.196357   -0.326097    0.013693
C      1.343880   -1.730228    0.123128
C      2.610446   -2.306472    0.154125
C      3.753174   -1.518943    0.055312
O      4.996970   -2.152130    0.046149
O      0.282250   -2.525232    0.186875
C     -0.961315   -2.072348    0.131077
C     -1.219260   -0.706834   -0.032052
C     -0.123559    0.172771   -0.128521
O     -0.335435    1.384106   -0.403847
C     -2.621901   -0.225840   -0.122780
C     -3.543880   -0.875925   -0.962458
C     -4.866080   -0.428435   -1.042257
C     -5.285405    0.667914   -0.282844
C     -4.375123    1.317308    0.561090
C     -3.052077    0.872763    0.642664
O     -6.605829    1.102541   -0.372588
O      2.288977    1.882894    0.096449
H      4.441201    2.317332   -1.242080
H      6.066648    2.242188   -0.475730
H      4.638103    2.565471    0.561498
H      2.708408   -3.382795    0.229524
H      5.868158   -1.640080   -0.021392
H     -1.777561   -2.779020    0.210214
H     -3.236956   -1.721175   -1.566022
H     -5.565405   -0.933688   -1.696273
H     -4.692521    2.163493    1.157088
H     -2.368404    1.376769    1.314520
H     -6.940471    1.893669    0.165020
H      1.512571    2.382402    0.506123
