34

C      6.295775   -0.023223   -0.817921
O      5.148540   -0.765751   -1.217983
C      3.827974   -0.429300   -0.881456
C      2.790112   -1.249732   -1.342508
C      1.457938   -0.946327   -1.028303
C      1.141413    0.185388   -0.257817
C      2.188596    0.998461    0.213196
C      3.517049    0.697112   -0.097998
C     -0.278267    0.475919    0.066544
C     -0.727916    1.779209    0.319300
C     -2.072627    1.999187    0.620769
O     -2.458754    3.185864    0.781474
C     -2.964098    0.902845    0.700045
C     -4.346674    1.002875    1.039229
C     -5.157571   -0.136976    0.972413
C     -4.625422   -1.381678    0.638294
C     -3.263604   -1.500944    0.357148
C     -2.435322   -0.376431    0.381559
O     -1.147084   -0.529398    0.093596
O     -5.459404   -2.496928    0.596565
O     -4.962423    2.182194    1.468874
O      3.091170   -2.369862   -2.115841
H      6.239688    1.011242   -1.217877
H      6.369574   -0.001887    0.289914
H      7.204224   -0.512551   -1.224884
H      0.669666   -1.590826   -1.398194
H      1.990501    1.854851    0.843530
H      4.295942    1.343805    0.282259
H     -0.057201    2.625811    0.244594
H     -6.211069   -0.058011    1.211668
H     -2.847151   -2.468962    0.106485
H     -5.104032   -3.415977    0.359895
H     -4.474789    2.994487    1.814344
H      2.365246   -2.984485   -2.465395
