35

C     -3.868351    0.286090   -0.435481
C     -3.164789   -0.088849    0.863859
C     -2.303213    1.053376    1.344469
C     -0.969260    1.002050    1.525257
C     -0.104408   -0.210652    1.271947
C      0.109704   -0.502822   -0.236286
C      1.208533    0.325772   -0.955630
C      2.418427   -0.595133   -1.055610
C      1.817260   -1.969270   -1.267821
C      0.533591   -1.982193   -0.439236
O     -0.463540   -2.706727   -1.111084
C      1.511077    1.772413   -0.478208
C      2.495493    1.895607    0.655352
O      2.092008    2.121390    1.825685
O      3.864644    1.809712    0.416459
H     -3.124021    0.513329   -1.227873
H     -4.518577    1.173614   -0.280422
H     -4.500518   -0.561611   -0.774233
H     -2.592392   -1.023832    0.705720
H     -3.931227   -0.299592    1.639516
H     -2.808964    1.984691    1.584244
H     -0.489310    1.884449    1.934972
H      0.877794   -0.088821    1.770146
H     -0.582918   -1.077983    1.775990
H     -0.849340   -0.326617   -0.770626
H      0.841925    0.448405   -2.002821
H      2.992760   -0.607183   -0.104403
H      3.085607   -0.309325   -1.897763
H      2.519819   -2.769091   -0.946704
H      1.585088   -2.104065   -2.348297
H      0.769631   -2.481292    0.530847
H     -1.187342   -2.866679   -0.450865
H      0.566761    2.298409   -0.231310
H      1.940294    2.332420   -1.337452
H      4.227755    1.670008   -0.518757
