33

C     -6.213952    0.032676   -0.263690
O     -5.013448    0.666454    0.166602
C     -3.723181    0.145873   -0.026521
C     -2.629088    0.881849    0.459491
C     -1.297794    0.412915    0.239758
C     -1.120580   -0.850232   -0.379519
C     -2.221611   -1.585091   -0.818597
C     -3.510256   -1.085378   -0.666541
O      0.091559   -1.355929   -0.564626
C      1.202038   -0.724431   -0.213309
C      2.433637   -1.345910   -0.436961
C      3.628208   -0.709015   -0.096080
C      3.583037    0.572969    0.478031
C      2.355847    1.211633    0.711127
C      1.144647    0.561853    0.366360
C     -0.127629    1.144686    0.566459
O     -0.208214    2.325443    0.996638
O      2.350849    2.482835    1.287621
O      4.834583   -1.381132   -0.344060
C      6.124622   -0.855358   -0.049229
O     -2.926487    2.045221    1.177055
H     -6.206304   -0.090877   -1.367272
H     -7.079258    0.667621    0.016352
H     -6.323205   -0.955077    0.231876
H     -2.075189   -2.544780   -1.298862
H     -4.338300   -1.674180   -1.036589
H      2.462900   -2.332623   -0.883086
H      4.496687    1.084213    0.749237
H      3.209342    2.958255    1.540566
H      6.294039    0.082691   -0.618963
H      6.894670   -1.595899   -0.347506
H      6.218993   -0.663755    1.040549
H     -2.311160    2.472480    1.853341
