39

C     -2.764997    3.871592    1.011877
O     -3.499394    2.651965    1.043026
C     -2.961170    1.390604    0.741773
C     -1.614419    1.221097    0.372557
C     -1.111806   -0.050847    0.064945
C     -1.958290   -1.166479    0.164309
C     -3.308235   -1.013206    0.531605
C     -3.803364    0.272435    0.815429
O     -5.138260    0.457633    1.179123
O     -4.179856   -2.110178    0.628097
C     -3.813678   -3.460592    0.363151
C      0.315841   -0.200287   -0.300083
C      0.735109   -1.037586   -1.348295
C      2.107447   -1.148895   -1.623413
O      2.472989   -1.857392   -2.597459
C      3.043736   -0.435019   -0.837266
C      4.459921   -0.504467   -1.001464
C      5.284324    0.344955   -0.253178
C      4.747374    1.214225    0.699677
C      3.370959    1.246207    0.909024
C      2.519890    0.437062    0.152417
O      1.213298    0.506593    0.376620
O      5.576191    2.044666    1.450985
O      5.103045   -1.402113   -1.858802
O     -0.207643   -1.716467   -2.125388
H     -3.437949    4.707032    1.293821
H     -1.925799    3.830801    1.738060
H     -2.377157    4.057869   -0.011893
H     -0.954101    2.076081    0.309806
H     -1.556383   -2.152858   -0.020592
H     -5.792549   -0.312328    1.249502
H     -3.017106   -3.785165    1.065491
H     -3.464878   -3.563073   -0.686225
H     -4.700287   -4.111248    0.507613
H      6.357473    0.304930   -0.394406
H      2.957822    1.912814    1.656295
H      6.581750    2.044026    1.325386
H      4.684948   -2.241359   -2.230806
H      0.055202   -2.323026   -2.892821
