29

C     -4.944157   -0.274202    0.088697
C     -4.070071   -1.352480   -0.061238
C     -2.691786   -1.132383   -0.143333
C     -2.171440    0.174042   -0.085271
C     -3.063781    1.252975    0.079573
C     -4.441285    1.026276    0.162033
C     -0.703152    0.380348   -0.165392
C     -0.148458    1.573317   -0.648933
C      1.238564    1.717615   -0.702814
O      1.706791    2.774687   -1.199291
C      2.072935    0.672364   -0.239983
C      3.498741    0.724260   -0.209029
C      4.222645   -0.415893    0.161493
C      3.573706   -1.584136    0.559217
C      2.178998   -1.628642    0.584368
C      1.428759   -0.519235    0.187440
O      0.102982   -0.606645    0.211762
O      4.326465   -2.694334    0.935872
O      4.245565    1.868292   -0.505642
H     -6.010685   -0.446776    0.153693
H     -4.460441   -2.360651   -0.113879
H     -2.033225   -1.983760   -0.263880
H     -2.703617    2.268709    0.170511
H     -5.119295    1.860251    0.290207
H     -0.777982    2.371780   -1.020735
H      5.305334   -0.382916    0.167221
H      1.673639   -2.532547    0.901999
H      3.886069   -3.557506    1.232412
H      3.878182    2.807189   -0.527078
