46

C      4.917781    1.313066   -0.099170
C      3.710397    1.288851    0.806902
C      2.494121    0.888047    0.375274
C      2.180782    0.427476   -1.028241
C      1.573972   -0.956541   -0.990092
C      0.196534   -1.120004   -0.736807
C     -0.373057   -2.414320   -0.669335
C      0.454637   -3.544553   -0.855266
C      1.823676   -3.372375   -1.089563
C      2.387551   -2.093691   -1.148022
O      3.758672   -1.952441   -1.362904
O     -0.070950   -4.836426   -0.803333
C     -1.753614   -2.512460   -0.397447
O     -2.324141   -3.634266   -0.314495
C     -2.506478   -1.351746   -0.194478
C     -1.872470   -0.099036   -0.319085
O     -0.567593   -0.045303   -0.563677
C     -2.605020    1.180442   -0.195393
C     -3.863958    1.364006   -0.797004
C     -4.527226    2.589824   -0.684886
C     -3.935839    3.645517    0.013350
C     -2.676133    3.479941    0.594237
C     -2.009053    2.256009    0.484997
O     -3.859312   -1.465791    0.142213
C     -4.336495   -1.159814    1.447515
C      3.852297    1.727447    2.241886
H      4.732389    1.990657   -0.959086
H      5.135251    0.289357   -0.468598
H      5.819900    1.679818    0.432981
H      1.661460    0.909556    1.075150
H      3.065779    0.438680   -1.695454
H      1.463106    1.145457   -1.479104
H      2.456770   -4.240971   -1.221593
H      4.365627   -2.755727   -1.477450
H      0.511750   -5.655344   -0.933165
H     -4.326401    0.568428   -1.366882
H     -5.497062    2.723661   -1.146385
H     -4.450213    4.594066    0.097665
H     -2.215296    4.300846    1.128300
H     -1.032761    2.144127    0.941233
H     -4.125863   -0.102163    1.706850
H     -5.432815   -1.324204    1.481474
H     -3.849713   -1.825168    2.191422
H      4.892700    2.032455    2.479073
H      3.183585    2.592377    2.437809
H      3.572727    0.892234    2.918586
