38

C      3.978641    0.790907   -0.854303
C      4.043244   -0.568236   -0.200756
C      3.445227   -0.826758    0.983432
C      2.671179    0.183266    1.798542
C      1.327129    0.501901    1.183085
C      0.291215   -0.460753    1.100384
C     -0.929219   -0.124463    0.494817
C     -1.143726    1.172368   -0.012490
C     -0.119469    2.127924    0.090537
C      1.096857    1.795859    0.686713
C     -2.381844    1.469914   -0.612482
O     -2.554622    2.604844   -1.131565
C     -3.396122    0.480982   -0.654870
C     -4.703001    0.684492   -1.194545
C     -5.584846   -0.398753   -1.295212
C     -5.231329   -1.657952   -0.816613
C     -3.984697   -1.856776   -0.231888
C     -3.066563   -0.806775   -0.151500
O     -1.880807   -1.043318    0.396731
O     -5.190343    1.925242   -1.615896
O      0.437619   -1.752694    1.613211
C      4.804943   -1.679067   -0.877051
H      4.628916    0.839618   -1.752201
H      2.940768    1.002409   -1.180917
H      4.322000    1.576844   -0.150078
H      3.550077   -1.821236    1.410181
H      3.286031    1.098220    1.938107
H      2.506351   -0.223566    2.818827
H     -0.254648    3.134097   -0.287005
H      1.868707    2.553121    0.749716
H     -6.569579   -0.253158   -1.721652
H     -5.932767   -2.479402   -0.886395
H     -3.723613   -2.836400    0.148931
H     -4.806374    2.817097   -1.342812
H      1.258191   -2.064549    2.114030
H      4.123991   -2.533895   -1.075258
H      5.238820   -1.351605   -1.844690
H      5.633660   -2.019749   -0.220768
