41

C      3.763872   -2.730237   -3.363544
O      4.349802   -2.300790   -2.138859
C      3.676101   -1.564335   -1.152844
C      4.375809   -1.209360    0.003150
C      3.757899   -0.474917    1.025537
C      2.403882   -0.082738    0.890724
C      1.701511   -0.441266   -0.280709
C      2.333121   -1.175343   -1.289003
O      0.434894   -0.084440   -0.443260
C     -0.249692    0.616071    0.454352
C      0.354961    0.996647    1.670420
C      1.710298    0.648844    1.878978
O      2.296959    0.984141    2.942218
O     -0.430872    1.676437    2.622895
C     -0.005385    2.135618    3.901411
C     -1.655120    0.958236    0.137295
C     -2.486911   -0.009746   -0.448829
C     -3.821077    0.296591   -0.783294
C     -4.311503    1.586940   -0.539155
C     -3.477934    2.560445    0.025576
C     -2.157010    2.251965    0.355116
O     -5.630809    1.895993   -0.866158
O     -4.684574   -0.649392   -1.357851
C     -4.321807   -1.992400   -1.661748
O      4.493287   -0.142554    2.164183
H      2.903001   -3.401663   -3.160226
H      3.432442   -1.852002   -3.956922
H      4.520249   -3.290377   -3.950465
H      5.411295   -1.508994    0.107509
H      1.768558   -1.435634   -2.174464
H      0.319639    1.279414    4.529079
H     -0.859328    2.631862    4.406151
H      0.812105    2.878646    3.790504
H     -2.092347   -1.000902   -0.630293
H     -3.851533    3.561152    0.201876
H     -1.522904    3.031067    0.758813
H     -6.015254    2.819430   -0.703704
H     -4.024711   -2.526851   -0.734747
H     -5.195109   -2.511850   -2.106531
H     -3.488460   -2.006187   -2.395648
H      5.462655   -0.417520    2.272472
