30

C      5.129377    0.320763    0.891883
C      4.133374    0.254257    1.867967
C      2.795385    0.093432    1.495443
C      2.438629   -0.012101    0.138062
C      3.452435    0.069834   -0.838165
C      4.788826    0.231705   -0.459263
C      1.009616   -0.173040   -0.231911
C      0.618946   -0.804027   -1.420700
C     -0.738103   -0.927675   -1.721561
O     -1.060635   -1.560051   -2.760599
C     -1.706138   -0.383794   -0.843199
C     -1.225995    0.187985    0.360869
O      0.077882    0.274011    0.603650
C     -2.115917    0.663762    1.322347
C     -3.493495    0.580186    1.129295
C     -3.996622    0.042895   -0.076362
C     -3.113015   -0.408864   -1.072371
O     -3.688340   -0.841049   -2.272214
O     -5.367661   -0.042810   -0.335879
O     -4.320690    1.046995    2.153424
H      6.164405    0.446915    1.182211
H      4.397795    0.327489    2.915006
H      2.040383    0.040069    2.270166
H      3.217900    0.034961   -1.893382
H      5.560792    0.295321   -1.215342
H      1.351139   -1.236066   -2.091021
H     -1.731290    1.088690    2.241825
H     -3.201979   -0.899225   -3.154100
H     -6.087483    0.265182    0.301378
H     -5.329520    1.024253    2.123508
