45

C     -1.984027    3.161523   -0.147542
C     -1.444249    2.064103    0.780953
C     -2.479259    0.946309    1.010134
C     -2.930543    0.260270   -0.299135
C     -3.411426   -1.193802   -0.090375
C     -2.417324   -2.198709   -0.627199
O     -2.144897   -2.187697   -1.818821
C     -1.782482   -3.244401    0.257197
C     -0.890664   -2.642951    1.350840
C      0.298406   -1.847476    0.785515
C      0.997113   -1.089354    1.882089
C      1.959644   -0.189223    1.656698
C      2.497627    0.124922    0.317771
C      2.116927    1.302776   -0.364859
C      2.773437    1.658160   -1.557839
C      3.789967    0.838654   -2.067071
C      4.153374   -0.336560   -1.399172
C      3.511869   -0.686700   -0.208821
O      5.157633   -1.158757   -1.905340
O      2.401716    2.814475   -2.244391
C      0.974096    2.101908    0.107566
O      1.113922    3.328968    0.359773
O     -0.263198    1.468642    0.246504
H     -2.072101    2.788851   -1.189651
H     -2.981015    3.504434    0.202056
H     -1.303633    4.037396   -0.145829
H     -1.206365    2.517662    1.768728
H     -2.015315    0.204593    1.691339
H     -3.368435    1.358168    1.535743
H     -2.114823    0.289637   -1.054411
H     -3.767234    0.854929   -0.727188
H     -3.635699   -1.395523    0.979313
H     -4.365626   -1.339028   -0.641772
H     -2.589419   -3.839034    0.736386
H     -1.176785   -3.945404   -0.358721
H     -0.497480   -3.472059    1.978957
H     -1.509661   -2.002672    2.012874
H      1.016195   -2.542809    0.299443
H     -0.059732   -1.124650    0.024028
H      0.675676   -1.233244    2.907456
H      2.362763    0.358937    2.499001
H      4.290891    1.110608   -2.987683
H      3.820483   -1.581696    0.318495
H      5.644932   -0.932387   -2.764529
H      2.854722    3.088209   -3.108506
