27

C     -3.750649    0.008661   -0.126140
C     -3.504825    1.349861    0.174672
C     -2.189369    1.800161    0.324338
C     -1.117846    0.914936    0.174497
C     -1.355435   -0.448467   -0.130810
C     -2.690481   -0.896744   -0.280809
O     -2.971247   -2.230274   -0.581337
C     -0.237201   -1.299553   -0.271397
O     -0.387844   -2.523138   -0.542924
C      1.056556   -0.772980   -0.106032
C      2.210184   -1.569306   -0.233334
C      3.482447   -1.005386   -0.060712
C      3.610010    0.356579    0.239938
C      2.465528    1.154658    0.367982
C      1.193599    0.598919    0.197149
O      0.121139    1.371000    0.322395
O      4.877800    0.910048    0.410116
O      4.625410   -1.793192   -0.186584
O     -4.576312    2.227835    0.322940
H     -4.772417   -0.331468   -0.240300
H     -1.997814    2.840347    0.557672
H     -3.922009   -2.563410   -0.691175
H      2.129159   -2.624295   -0.465518
H      2.564033    2.207875    0.600470
H      5.002880    1.891749    0.628132
H      4.567507   -2.781398   -0.403357
H     -4.432802    3.206980    0.541128
