29

C     -4.532861   -1.728735   -0.281923
O     -4.183103   -0.364098   -0.074494
C     -2.866453    0.112782    0.012281
C     -2.669688    1.480767    0.218369
C     -1.378704    2.019704    0.314082
C     -0.252325    1.170646    0.201110
C     -0.454995   -0.214787   -0.007651
C     -1.750098   -0.732917   -0.100314
O      0.578463   -1.042000   -0.118482
C      1.841738   -0.638771   -0.043310
C      2.140480    0.727525    0.163751
C      1.076750    1.639416    0.286829
O      1.317787    2.864662    0.472190
C      3.485077    1.136630    0.240774
C      4.512947    0.199515    0.113509
C      4.214053   -1.148995   -0.090907
C      2.884297   -1.574523   -0.170197
O      2.618335   -2.928347   -0.375009
O     -1.226539    3.391552    0.520212
H     -5.638014   -1.819646   -0.308682
H     -4.123277   -2.084904   -1.250748
H     -4.144822   -2.353162    0.550395
H     -3.530935    2.131650    0.305002
H     -1.874840   -1.795648   -0.260081
H      3.744293    2.176320    0.398721
H      5.545204    0.519623    0.173540
H      5.018597   -1.866892   -0.188199
H      1.673430   -3.287757   -0.439845
H     -2.024796    4.010390    0.602825
