29

C      5.371736   -0.340279    0.378754
O      4.131141   -0.444414    1.069876
C      2.874386   -0.244350    0.478989
C      2.723485    0.084442   -0.879625
C      1.449333    0.276751   -1.434238
C      0.299127    0.139430   -0.621232
C      0.460249   -0.191920    0.746119
C      1.738139   -0.379399    1.279570
O     -0.596085   -0.329255    1.540177
C     -1.843261   -0.168942    1.115298
C     -2.103432    0.162566   -0.232667
C     -1.014441    0.317812   -1.109014
O     -1.218930    0.613990   -2.318985
C     -3.435941    0.327001   -0.657680
C     -4.492073    0.162739    0.250119
C     -4.221888   -0.165478    1.582141
C     -2.903455   -0.330708    2.013358
O     -5.813150    0.323557   -0.161905
O      1.336966    0.602261   -2.786788
H      5.413770   -1.084178   -0.444704
H      5.498596    0.686155   -0.025691
H      6.199749   -0.547609    1.087100
H      3.590793    0.193612   -1.516424
H      1.849689   -0.632627    2.326886
H     -3.660119    0.581257   -1.686533
H     -5.035936   -0.292698    2.284426
H     -2.705488   -0.584877    3.047146
H     -6.044492    0.561274   -1.119430
H      2.151534    0.703887   -3.381047
