32

C     -3.509105   -1.506869    0.165035
C     -4.793838   -0.980957    0.020128
C     -4.988726    0.281926   -0.547849
C     -3.868354    1.025689   -0.986510
C     -2.581923    0.491786   -0.834469
C     -2.387565   -0.772732   -0.245683
C     -1.042729   -1.376998   -0.079271
C      0.091475   -0.663697   -0.029063
C      1.414613   -1.298878    0.152333
O      1.504509   -2.550083    0.286300
C      2.645429   -0.477412    0.146565
C      3.678258   -0.669513    1.097024
C      4.855590    0.083194    1.004399
C      5.012536    1.041359   -0.000069
C      3.985970    1.249689   -0.926812
C      2.812674    0.495848   -0.855399
O      6.190524    1.782067   -0.066345
O      3.559548   -1.572090    2.156206
O     -3.985365    2.284915   -1.578912
O     -6.298599    0.752992   -0.658279
H     -3.390410   -2.487721    0.609613
H     -5.646341   -1.559748    0.352921
H     -1.744012    1.066030   -1.205469
H     -0.993363   -2.452301    0.048808
H      0.058587    0.415515   -0.086312
H      5.647040   -0.067250    1.728195
H      4.099792    1.989060   -1.709399
H      2.043409    0.656446   -1.600907
H      6.334661    2.484876   -0.782028
H      2.705292   -2.070540    2.367136
H     -4.865232    2.752081   -1.743744
H     -6.544340    1.653319   -1.043794
