33

C      2.731079   -1.382516   -0.567391
C      4.111196   -1.231877   -0.725081
C      4.755160   -0.081282   -0.260185
C      4.007753    0.931888    0.363162
C      2.622335    0.779303    0.520116
C      1.975818   -0.384613    0.072951
C      0.508488   -0.509663    0.229378
C     -0.101716   -1.712189    0.625474
C     -1.501041   -1.763346    0.728854
O     -2.037930   -2.824827    1.140669
C     -2.273361   -0.618249    0.416692
C     -1.563684    0.566878    0.097835
O     -0.238876    0.565890    0.011154
C     -2.245205    1.763783   -0.125303
C     -3.636580    1.816846   -0.031985
C     -4.361763    0.650976    0.251326
C     -3.699439   -0.572094    0.444388
O     -4.505020   -1.700834    0.627628
O     -5.755391    0.684420    0.326514
O     -4.304446    3.024658   -0.229987
O      0.680397   -2.824698    0.947869
O      4.641883    2.085158    0.822760
O      6.133928    0.039779   -0.430185
H      2.253509   -2.267302   -0.968223
H      4.681653   -2.008711   -1.218358
H      2.052172    1.564522    1.002136
H     -1.686306    2.661939   -0.358562
H     -4.205225   -2.651035    0.469003
H     -6.284188    1.537472    0.189630
H     -3.804070    3.880774   -0.438964
H      0.277459   -3.705518    1.244135
H      4.125590    2.830563    1.275201
H      6.645821    0.853903   -0.112040
