31

C     -5.925818   -0.619341   -0.413022
O     -5.490807    0.712035   -0.103115
C     -4.113400    0.696975    0.001841
C     -3.656267   -0.560144   -0.221900
O     -4.723392   -1.398838   -0.479687
C     -2.300442   -0.871399   -0.179410
C     -1.385290    0.170169    0.102041
C     -1.875391    1.482201    0.341491
C     -3.254864    1.752569    0.289124
C      0.069811   -0.115162    0.166840
C      0.534897   -1.215204    0.905368
O      1.832901   -1.486405    0.982882
C      2.757359   -0.749432    0.377298
C      2.383010    0.374325   -0.393039
C      1.016491    0.686230   -0.500254
O      0.640267    1.663843   -1.204791
C      3.378903    1.137946   -1.029300
C      4.725521    0.786553   -0.895835
C      5.093685   -0.325347   -0.131564
C      4.107998   -1.092408    0.504186
O      6.440587   -0.659671   -0.010388
H     -6.587133   -1.003340    0.391785
H     -6.446499   -0.633743   -1.393426
H     -1.967169   -1.883645   -0.370306
H     -1.193257    2.287224    0.583982
H     -3.637058    2.748239    0.471624
H     -0.162708   -1.854608    1.431067
H      3.121012    2.003613   -1.626967
H      5.485632    1.379963   -1.388005
H      4.390544   -1.954420    1.095817
H      6.740879   -1.458775    0.535643
