48

C     -2.499403    1.990694    0.568545
C     -2.652238    1.236251   -0.733278
C     -1.580541    0.824430   -1.438804
C     -0.181950    0.977879   -0.985217
C      0.836433    0.645484   -1.781981
C      2.235180    0.802634   -1.347521
C      2.822141    0.066605   -0.382863
C      4.249683    0.339132   -0.073674
C      5.064040   -0.565350    0.485185
C      6.474260   -0.231789    0.786367
C      7.363281   -1.110678    1.295459
C      8.755527   -0.668980    1.566235
O      9.609869   -1.485210    2.007740
O      9.136962    0.651192    1.337699
C      6.967461   -2.540436    1.588295
C      2.106961   -1.077160    0.303967
C     -4.000990    0.902869   -1.258387
C     -5.080919    0.776390   -0.477447
C     -6.393527    0.412474   -1.056583
C     -7.519961    0.259442   -0.330110
C     -8.784088   -0.119550   -1.012577
O     -9.857075   -0.220454   -0.358998
O     -8.801765   -0.369941   -2.384270
C     -7.518333    0.472737    1.166291
H     -2.258462    1.281828    1.389160
H     -3.424991    2.545567    0.824874
H     -1.700159    2.757574    0.487814
H     -1.742477    0.313109   -2.382111
H      0.032647    1.334178    0.015032
H      0.650709    0.348257   -2.805967
H      2.825994    1.528446   -1.895502
H      4.651846    1.310220   -0.338674
H      4.690561   -1.555962    0.705850
H      6.793873    0.783735    0.581357
H     10.084138    0.958286    1.523286
H      6.145920   -2.558403    2.336770
H      6.630919   -3.038527    0.653520
H      7.807641   -3.133126    2.002556
H      2.336133   -2.026508   -0.225656
H      2.442372   -1.159145    1.360286
H      1.009248   -0.947599    0.333319
H     -4.099301    0.703594   -2.320993
H     -4.986317    0.909328    0.591630
H     -6.434263    0.264521   -2.129083
H     -9.660384   -0.628641   -2.855436
H     -6.812324   -0.235582    1.649202
H     -7.216186    1.515463    1.398134
H     -8.518147    0.304343    1.616559
