32

C     -4.535425    2.304308   -0.257357
O     -4.561666    0.881367   -0.211159
C     -3.419935    0.069128   -0.139196
C     -3.594599   -1.317320   -0.099946
C     -2.493791   -2.183045   -0.027179
C     -1.184553   -1.650587    0.006616
C     -1.009415   -0.247601   -0.034203
C     -2.118846    0.599853   -0.105733
O      0.209510    0.282298   -0.005551
C      1.322350   -0.445377    0.058086
C      1.229059   -1.845768    0.112368
C     -0.027671   -2.451613    0.084869
O     -0.101365   -3.709193    0.135323
C      2.631625    0.254433    0.085149
C      3.807770   -0.353051   -0.399826
C      5.024485    0.335757   -0.370077
C      5.082637    1.636197    0.134856
C      3.922603    2.253892    0.605951
C      2.702992    1.570815    0.577985
O     -2.708925   -3.561305    0.010762
H     -5.576066    2.684500   -0.310867
H     -3.984908    2.647015   -1.158868
H     -4.056368    2.707381    0.659856
H     -4.597532   -1.725148   -0.125905
H     -1.955808    1.668960   -0.135209
H      2.112653   -2.464482    0.201865
H      3.790377   -1.347047   -0.825541
H      5.922474   -0.137449   -0.746019
H      6.025535    2.167227    0.155827
H      3.967790    3.263543    0.993424
H      1.816985    2.068386    0.952836
H     -3.641972   -3.956075   -0.012823
