35

C     -5.491785   -1.086421   -0.850466
O     -4.070363   -1.065149   -0.765232
C     -3.315756   -0.031385   -0.183361
C     -3.942170    1.100196    0.377909
C     -3.188089    2.124318    0.953819
C     -1.794449    2.033891    0.979755
C     -1.149122    0.923217    0.432345
C     -1.900159   -0.121436   -0.157001
C     -1.186695   -1.210802   -0.702063
O     -1.790140   -2.171737   -1.252523
C      0.215397   -1.225000   -0.639910
C      0.879514   -0.154075   -0.012670
O      0.176750    0.862885    0.476515
C      2.354320   -0.105931    0.109646
C      3.095503   -1.239290    0.490482
C      4.489762   -1.165546    0.623513
C      5.150760    0.046337    0.387947
C      4.414615    1.182698    0.028709
C      3.025345    1.109087   -0.101870
O      6.536751    0.114822    0.517395
O      5.223471   -2.291033    0.994495
O      0.945585   -2.267869   -1.215868
O     -3.836423    3.230341    1.499389
H     -5.809896   -2.020390   -1.357225
H     -5.935976   -1.066014    0.167089
H     -5.851990   -0.220154   -1.444580
H     -5.019115    1.198019    0.373075
H     -1.209644    2.827924    1.427770
H      2.593940   -2.173340    0.709312
H      4.918286    2.124475   -0.148475
H      2.474176    1.999048   -0.380668
H      7.042217    0.977952    0.354877
H      4.774447   -3.181820    1.172740
H      0.500640   -3.048911   -1.682777
H     -3.319706    3.991095    1.925066
