35

C      6.180637   -0.992699   -1.118952
O      4.906000   -1.395356   -1.609557
C      3.681136   -1.037914   -1.024580
C      2.497153   -1.504434   -1.612304
C      1.254297   -1.170480   -1.055967
C      1.178693   -0.380211    0.101168
C      2.365849    0.103208    0.675994
C      3.606023   -0.227125    0.123536
C     -0.147478   -0.022687    0.654374
C     -0.407449   -0.029510    2.038489
C     -1.684178    0.338832    2.490573
O     -1.925401    0.346989    3.728477
C     -2.681158    0.686509    1.556087
C     -3.993504    1.065392    1.928753
C     -4.932141    1.388490    0.937556
C     -4.583787    1.339079   -0.417029
C     -3.291070    0.966673   -0.788870
C     -2.340652    0.642572    0.183691
O     -1.116765    0.296598   -0.198420
O     -5.515998    1.658937   -1.401689
O     -4.370650    1.122853    3.271079
O      0.583039   -0.425664    2.940861
O      2.563636   -2.301661   -2.753888
H      6.970887   -1.419819   -1.769655
H      6.328644   -1.370361   -0.085174
H      6.264675    0.114451   -1.137760
H      0.347437   -1.538641   -1.520809
H      2.336635    0.757340    1.537935
H      4.500127    0.160492    0.592294
H     -5.936107    1.678287    1.221535
H     -3.023412    0.930301   -1.837807
H     -6.462651    1.933290   -1.166136
H     -5.306627    1.392396    3.550856
H      0.426858   -0.450974    3.941352
H      1.727303   -2.655152   -3.203894
