38

C     -2.065271    2.770880    0.912592
C     -1.309219    1.942810   -0.094460
C      0.043868    1.933821   -0.022570
C      0.986400    1.110986   -0.876929
C      1.522416   -0.133006   -0.085862
C      1.186117   -1.510286   -0.731089
C     -0.331138   -1.818092   -0.830220
C     -1.066421   -1.601379    0.482977
C     -2.129796   -0.774956    0.614940
C     -2.850385   -0.062492   -0.509267
C     -2.113006    1.149982   -1.110459
C     -0.632396   -2.381004    1.700379
O      1.816008   -1.665222   -1.981020
C      3.004622    0.099285   -0.025246
C      3.892851   -0.647701    0.630876
C      3.289920    1.331448   -0.711953
O      4.431273    1.842566   -0.859608
O      2.131731    1.904496   -1.184512
H     -1.772393    3.838102    0.819394
H     -3.161957    2.694443    0.755675
H     -1.834912    2.416296    1.939694
H      0.515819    2.518064    0.764513
H      0.540437    0.823555   -1.841195
H      1.147476   -0.122294    0.961879
H      1.624625   -2.287212   -0.070598
H     -0.773914   -1.234886   -1.656203
H     -0.453854   -2.884388   -1.117925
H     -2.586061   -0.681256    1.598012
H     -3.102449   -0.787495   -1.312815
H     -3.820735    0.298193   -0.103331
H     -2.877581    1.832191   -1.541851
H     -1.530249    0.841466   -1.992444
H     -0.229456   -1.686915    2.467720
H      0.145271   -3.131263    1.451335
H     -1.499063   -2.929578    2.127125
H      1.342368   -1.099703   -2.642642
H      4.940288   -0.375006    0.646766
H      3.578768   -1.534450    1.165413
