34

C     -1.751208    2.273418   -0.172373
O     -2.949414    1.579410   -0.502195
C     -3.051720    0.190949   -0.687512
C     -4.305134   -0.370310   -1.031667
C     -4.437245   -1.762556   -1.224931
C     -3.332822   -2.615117   -1.080115
C     -2.110273   -2.046446   -0.741567
C     -1.962029   -0.687265   -0.548016
O     -0.646250   -0.367618   -0.214426
C      0.086518   -1.555665   -0.193546
C      1.384688   -1.661396    0.110778
C      2.246018   -0.505814    0.448757
C      3.282465   -0.682850    1.378678
C      4.127838    0.379682    1.718453
C      3.951020    1.634632    1.112468
C      2.933802    1.810464    0.165455
C      2.091937    0.747652   -0.171579
O      4.787767    2.697843    1.448065
O      5.136463    0.169020    2.658139
C     -0.813862   -2.657433   -0.522929
O     -0.528852   -3.881894   -0.599845
O     -5.431825    0.436725   -1.186887
H     -1.360557    1.921312    0.805526
H     -0.992810    2.127329   -0.969905
H     -1.972371    3.357319   -0.092428
H     -5.400658   -2.180355   -1.487940
H     -3.430830   -3.682860   -1.227199
H      1.817640   -2.652705    0.177692
H      3.428470   -1.646376    1.852676
H      2.800785    2.769682   -0.318657
H      1.344677    0.903370   -0.937481
H      4.680880    3.611723    1.023448
H      5.773952    0.904981    2.937465
H     -5.397061    1.441146   -1.060989
