50

C     -5.087463    1.578465    2.031768
C     -4.795294    0.626858    0.875811
C     -5.752644    0.871525   -0.298309
C     -5.546325   -0.122090   -1.450374
C     -4.257107    0.128924   -2.190602
C     -3.090183   -0.489659   -1.957935
C     -2.884925   -1.546416   -0.945066
C     -1.663980   -2.028688   -0.701442
C     -1.454022   -3.069241    0.326317
C     -0.249770   -3.514631    0.711413
C      1.063624   -3.007271    0.178741
C      1.410397   -1.633008    0.767513
C      2.759687   -1.133077    0.238999
C      3.080698    0.264704    0.782644
C      4.421839    0.773341    0.240137
C      4.716589    2.193049    0.746432
C      6.065197    2.723571    0.241292
C      6.056887    2.937865   -1.245820
O      5.458516    3.933637   -1.733308
O      6.665387    2.021781   -2.097783
H     -6.119824    1.418596    2.411058
H     -4.372939    1.386726    2.859533
H     -4.977051    2.633852    1.699829
H     -3.745732    0.785913    0.546957
H     -4.903031   -0.419139    1.237729
H     -6.798806    0.768341    0.063540
H     -5.626997    1.910778   -0.675808
H     -5.640484   -1.168839   -1.097641
H     -6.376181    0.024903   -2.174430
H     -4.273066    0.901546   -2.949271
H     -2.237609   -0.180079   -2.551678
H     -3.718674   -1.928464   -0.374300
H     -0.823426   -1.642688   -1.263048
H     -2.324830   -3.508184    0.799276
H     -0.214374   -4.305103    1.451811
H      1.042747   -2.973015   -0.931711
H      1.858000   -3.728707    0.470261
H      0.621167   -0.896369    0.505310
H      1.455621   -1.710386    1.875673
H      2.728339   -1.096516   -0.871664
H      3.560259   -1.840801    0.547445
H      3.123506    0.227876    1.893872
H      2.272534    0.969345    0.482980
H      5.235680    0.087940    0.564935
H      4.384997    0.775718   -0.871325
H      3.903679    2.883117    0.428366
H      4.738943    2.184604    1.858406
H      6.880229    2.023341    0.525485
H      6.275571    3.694839    0.738866
H      7.154644    1.211219   -1.734937
