33

C     -6.360504    0.144788    0.028086
O     -5.265251   -0.762127   -0.046344
C     -3.916225   -0.377091   -0.071479
C     -3.515149    0.967695   -0.032148
C     -2.160805    1.321391   -0.074863
C     -1.165087    0.300795   -0.086923
C     -1.586591   -1.052805   -0.150620
C     -2.945606   -1.374518   -0.147071
O     -0.700393   -2.039944   -0.205084
C      0.608289   -1.835080   -0.187495
C      1.130060   -0.540638   -0.083755
C      0.229312    0.539073   -0.000751
O      0.681088    1.696891    0.203994
C      2.601369   -0.339726   -0.043270
C      3.215250    0.620372   -0.867391
C      4.601317    0.800258   -0.832667
C      5.391328    0.020960    0.022417
C      4.788293   -0.939470    0.840020
C      3.402538   -1.122314    0.807176
O      6.773117    0.191988    0.065818
O     -1.873994    2.688351   -0.135322
H     -6.361949    0.815239   -0.857179
H     -7.308200   -0.431506    0.038326
H     -6.298140    0.743198    0.961508
H     -4.253120    1.758115   -0.000983
H     -3.250455   -2.413245   -0.188614
H      1.270310   -2.689063   -0.253658
H      2.623995    1.219855   -1.548446
H      5.060360    1.542266   -1.473514
H      5.394145   -1.544252    1.502783
H      2.954043   -1.865408    1.454963
H      7.239993    0.879173   -0.514436
H     -1.003338    3.076781   -0.465715
