49

C     -7.676483   -1.755645   -1.268927
C     -6.675577   -0.607523   -1.403363
C     -5.461744   -0.763453   -0.473185
C     -4.483170   -1.846018   -0.960364
C     -3.286645   -2.031884   -0.013554
C     -2.303151   -0.852527   -0.058663
C     -1.041788   -1.157747    0.758248
C     -0.079430    0.036375    0.755133
C      1.209995   -0.295600    1.521642
C      2.126488    0.924557    1.705705
C      2.766335    1.389142    0.386714
C      3.724631    2.579456    0.578759
C      5.034656    2.228293    1.304097
C      5.836731    1.186689    0.567616
O      5.894429    0.048240    1.009235
C      6.554188    1.523882   -0.710509
C      5.929270    0.802337   -1.864982
O      5.005561    1.350446   -2.522263
O      6.334905   -0.486597   -2.198628
H     -8.574969   -1.534181   -1.882933
H     -7.994075   -1.871469   -0.211323
H     -7.238381   -2.707879   -1.630868
H     -7.198204    0.338496   -1.142459
H     -6.341441   -0.524658   -2.460410
H     -4.937165    0.214728   -0.444045
H     -5.804478   -0.994512    0.559399
H     -5.014389   -2.818741   -1.020417
H     -4.119280   -1.597615   -1.981326
H     -3.649588   -2.181924    1.026760
H     -2.751093   -2.957383   -0.319265
H     -2.789122    0.055204    0.357583
H     -2.014243   -0.649685   -1.113241
H     -0.529393   -2.044550    0.323856
H     -1.329955   -1.394410    1.806503
H     -0.579366    0.910186    1.228300
H      0.167986    0.293967   -0.296805
H      0.940002   -0.673849    2.532263
H      1.763360   -1.105134    0.996687
H      1.553506    1.759951    2.164367
H      2.925266    0.632187    2.418468
H      3.295106    0.542695   -0.100551
H      1.965487    1.721495   -0.306060
H      3.970900    3.001146   -0.419920
H      3.204070    3.381856    1.145316
H      4.823556    1.888883    2.339958
H      5.648338    3.150115    1.395246
H      6.517268    2.618732   -0.898789
H      7.623357    1.236280   -0.619983
H      7.057741   -0.962358   -1.672193
