48

C     -6.746329    2.601045    0.437774
C     -6.360829    1.234290   -0.121203
C     -4.840269    1.037504   -0.104792
C     -4.459964   -0.342907   -0.660138
C     -2.940067   -0.534448   -0.784698
C     -2.248710   -0.676397    0.579666
C     -0.784465   -0.976199    0.415429
C     -0.355459   -2.176277   -0.004711
C      1.110212   -2.482037   -0.138264
C      1.722241   -1.748693   -1.341880
C      3.243824   -1.980989   -1.452929
C      4.083379   -0.795563   -0.945669
C      3.934085   -0.562951    0.566848
C      4.965964    0.435341    1.125904
C      4.549321    1.908670    0.981382
C      4.677500    2.410946   -0.425983
O      3.647059    2.732610   -1.074393
O      5.928088    2.533896   -1.024752
H     -6.291479    3.409811   -0.173048
H     -6.403325    2.698422    1.489721
H     -7.850411    2.715059    0.412744
H     -6.847809    0.444076    0.490834
H     -6.738494    1.154411   -1.163873
H     -4.477878    1.133565    0.941000
H     -4.361436    1.829479   -0.722228
H     -4.888128   -1.141651   -0.015523
H     -4.903154   -0.455797   -1.673994
H     -2.496300    0.317223   -1.345680
H     -2.762130   -1.456624   -1.379869
H     -2.342866    0.274051    1.145163
H     -2.728025   -1.483091    1.176525
H     -0.063735   -0.205180    0.675004
H     -1.073335   -2.962059   -0.222867
H      1.628379   -2.208456    0.804074
H      1.231315   -3.577383   -0.283653
H      1.234559   -2.134869   -2.264367
H      1.497721   -0.660582   -1.289757
H      3.549794   -2.914622   -0.930909
H      3.494047   -2.126419   -2.526919
H      3.792920    0.114886   -1.507275
H      5.149185   -1.008979   -1.178333
H      2.906916   -0.211098    0.800620
H      4.084828   -1.534015    1.087265
H      5.071292    0.232000    2.214062
H      5.968251    0.263374    0.677331
H      5.209061    2.528269    1.626075
H      3.508878    2.049794    1.348208
H      6.775778    2.298560   -0.522724
