18

C     -2.481170    0.134749    1.123522
C     -1.551249   -0.946004    0.579196
C     -0.575882   -0.379357   -0.415010
C      0.431881    0.420638   -0.033895
C      1.411178    0.976194   -1.027620
C      2.318048   -0.104200   -1.532883
O      2.123368   -0.608000   -2.670307
O      3.357818   -0.582170   -0.740786
H     -3.214676   -0.323558    1.819808
H     -1.902868    0.904459    1.677313
H     -3.035456    0.620067    0.291835
H     -2.164873   -1.724903    0.077799
H     -1.001159   -1.427966    1.416336
H     -0.680898   -0.654990   -1.461044
H      0.546670    0.686770    1.013455
H      0.866764    1.455197   -1.870654
H      2.026403    1.758434   -0.534428
H      3.526100   -0.205359    0.184392
