48

C     -6.932032    0.652771   -0.348468
C     -5.980753   -0.474623   -0.749528
C     -4.911354   -0.760089    0.316619
C     -3.826481    0.329030    0.368394
C     -2.786406    0.082604    1.476541
C     -1.948512   -1.201329    1.312376
C     -1.189639   -1.324683   -0.024338
C     -0.254248   -0.147899   -0.357248
C      0.903205   -0.004084    0.644968
C      1.834669    1.177060    0.316667
C      2.586162    1.066304   -1.025257
C      3.430998   -0.211254   -1.200690
C      4.481856   -0.454990   -0.099749
C      5.542326    0.654959   -0.001583
C      6.541842    0.311180    1.069501
O      6.490163    0.893599    2.184749
O      7.507014   -0.670077    0.857111
O      6.198732    0.800205   -1.234099
H     -7.383189    0.446491    0.645312
H     -6.401652    1.626570   -0.319428
H     -7.748868    0.728627   -1.096804
H     -5.498600   -0.229075   -1.720724
H     -6.582529   -1.397486   -0.898179
H     -5.391417   -0.869723    1.313740
H     -4.438242   -1.731113    0.059373
H     -3.326130    0.416101   -0.618896
H     -4.302239    1.309553    0.579022
H     -2.106644    0.959252    1.532327
H     -3.311848    0.034552    2.455234
H     -1.225251   -1.261171    2.152592
H     -2.608487   -2.086958    1.426371
H     -0.591014   -2.261397   -0.001714
H     -1.922156   -1.444462   -0.850678
H      0.162217   -0.342565   -1.367618
H     -0.828912    0.800015   -0.417419
H      0.487262    0.184599    1.656578
H      1.481054   -0.950318    0.700253
H      1.234105    2.112695    0.305033
H      2.571387    1.290851    1.140098
H      1.857580    1.126240   -1.860855
H      3.240430    1.956354   -1.138417
H      3.944057   -0.159068   -2.185246
H      2.756741   -1.092252   -1.252590
H      4.988366   -1.419566   -0.324345
H      3.977157   -0.580356    0.881938
H      5.041652    1.611056    0.274589
H      7.565915   -1.169056   -0.022428
H      6.671716    1.672928   -1.205520
