42

C      6.737443   -0.718704    0.077098
C      5.441349   -1.185408   -0.585573
C      4.299322   -0.166602   -0.445485
C      3.734898   -0.107880    0.984495
C      2.601663    0.920800    1.130292
C      1.295066    0.465243    0.462379
C      0.154744    1.450130    0.763318
C     -1.135196    1.120664   -0.005611
C     -1.850839   -0.124243    0.547234
C     -3.146812   -0.447617   -0.214289
C     -4.298704    0.510210    0.140368
C     -5.610003    0.133151   -0.575435
C     -6.150865   -1.170836   -0.065955
O     -6.635267   -1.247249    1.095447
O     -6.095315   -2.305140   -0.870032
O     -6.571915    1.133448   -0.364058
H      6.626445   -0.682315    1.180249
H      7.551874   -1.434293   -0.162942
H      7.028052    0.284894   -0.299825
H      5.135647   -2.165464   -0.158949
H      5.642729   -1.339440   -1.667994
H      3.493007   -0.472907   -1.144269
H      4.652807    0.840458   -0.757957
H      4.544856    0.187696    1.683957
H      3.373541   -1.113305    1.293076
H      2.923595    1.898008    0.707825
H      2.413361    1.070238    2.216351
H      1.028336   -0.542993    0.843527
H      1.438625    0.405453   -0.637075
H      0.478611    2.471791    0.465575
H     -0.052586    1.468832    1.855892
H     -0.905194    0.980193   -1.084505
H     -1.807741    1.999132    0.082668
H     -1.179344   -1.002754    0.448542
H     -2.072197    0.010726    1.628642
H     -2.957142   -0.424902   -1.309878
H     -3.444437   -1.484788    0.052249
H     -4.022670    1.540538   -0.167114
H     -4.461521    0.516917    1.240900
H     -5.416820    0.031904   -1.669372
H     -6.446164   -3.195302   -0.537417
H     -6.335238    1.891717   -0.960087
