48

C     -7.508809    0.783815    0.388328
C     -6.174590    0.054041    0.514041
C     -6.021601   -1.011271   -0.579651
C     -4.765615   -1.880423   -0.397418
C     -3.444839   -1.105033   -0.589208
C     -2.769579   -0.769327    0.752386
C     -1.579364    0.189668    0.593889
C     -0.384115   -0.462154   -0.117260
C      0.825599    0.480382   -0.134572
C      2.020442   -0.171500   -0.846699
C      3.210865    0.787264   -1.006833
C      3.923632    1.074012    0.326229
C      5.166443    1.957422    0.138008
C      6.256546    1.258850   -0.625949
C      6.942967    0.241786   -0.093610
C      8.018272   -0.450759   -0.820860
O      8.335013   -0.108527   -1.992543
O      8.691733   -1.498907   -0.202604
H     -7.586008    1.556548    1.182026
H     -8.352207    0.070322    0.505155
H     -7.583893    1.282313   -0.601636
H     -5.358340    0.802413    0.427664
H     -6.119523   -0.423164    1.516638
H     -6.907834   -1.682977   -0.555999
H     -5.997099   -0.523787   -1.579095
H     -4.795972   -2.388163    0.592016
H     -4.809311   -2.685810   -1.163223
H     -3.617256   -0.176729   -1.176878
H     -2.752777   -1.742384   -1.180476
H     -3.505241   -0.288041    1.429897
H     -2.432507   -1.707128    1.246146
H     -1.261753    0.511134    1.610149
H     -1.900648    1.098453    0.039043
H     -0.662764   -0.707982   -1.164275
H     -0.108236   -1.402872    0.408284
H      0.549157    1.421037   -0.659911
H      1.103325    0.726312    0.912362
H      1.700795   -0.491521   -1.862815
H      2.341260   -1.081379   -0.293345
H      2.868509    1.740392   -1.466246
H      3.931388    0.315964   -1.709892
H      4.209860    0.119252    0.818759
H      3.229695    1.610557    1.006772
H      4.879441    2.885815   -0.401877
H      5.556300    2.261374    1.133886
H      6.493016    1.617750   -1.620614
H      6.710008   -0.094103    0.909766
H      9.435612   -1.992933   -0.681045
