23

C     -2.208722   -1.398322   -0.471410
C     -2.816249   -0.228980   -0.259581
C     -2.072791    0.910004    0.390886
C     -0.576022    0.905369   -0.006803
C      0.020601   -0.497541    0.043856
C     -0.767373   -1.559121   -0.205077
C      1.471784   -0.723210    0.265440
C      2.387946    0.253282    0.204378
C      3.824963   -0.000465    0.423199
O      4.242851   -1.158025    0.693938
O      4.739119    1.045113    0.333024
O     -0.386007    1.467571   -1.282313
O     -2.657639    2.136868    0.039216
H     -2.774911   -2.237185   -0.855318
H     -3.873188   -0.129778   -0.474354
H     -2.132423    0.768092    1.495675
H     -0.051051    1.548382    0.731775
H     -0.349720   -2.558258   -0.243327
H      1.799989   -1.737887    0.462205
H      2.094273    1.267497   -0.028478
H      4.440515    1.988991    0.117802
H     -0.859266    0.892663   -1.939277
H     -3.496679    2.216562    0.564545
