32

C      4.838727   -0.164667    1.372000
C      4.970489   -0.769625    0.187447
C      4.237393   -0.282140   -1.036184
C      2.741423   -0.576134   -0.890476
C      1.879135    0.544767   -0.442119
O      1.976824    0.180326   -1.800973
C      0.553881    0.147100    0.130157
C     -0.569695    0.768815   -0.245575
C     -1.890484    0.399126    0.356173
C     -2.994856    0.185693   -0.618798
O     -2.283941   -0.891815   -0.053455
C     -4.477727    0.185822   -0.171635
C     -4.727862    0.226280    1.344502
O     -4.241187   -0.937501    1.954661
O     -5.120843    1.290153   -0.751491
O      4.713081   -0.956416   -2.170699
H      4.188181    0.696178    1.491478
H      5.388532   -0.530996    2.232783
H      5.644370   -1.617845    0.103946
H      4.414957    0.813643   -1.156980
H      2.369674   -1.620932   -0.811849
H      2.306057    1.552786   -0.254475
H      0.519295   -0.635512    0.883496
H     -0.530235    1.575596   -0.972673
H     -2.060596    0.543194    1.441649
H     -2.771186    0.266936   -1.704615
H     -4.945885   -0.750153   -0.557321
H     -5.824807    0.293613    1.521822
H     -4.257454    1.130789    1.790407
H     -4.407050   -0.828517    2.926961
H     -5.241439    1.082627   -1.715339
H      5.603228   -0.570036   -2.382824
