20

C     -2.942404    0.828458   -0.942253
C     -2.119880    0.137894    0.141736
C     -0.617572    0.320817   -0.101862
C      0.204487   -0.376423    0.989032
C      1.676376   -0.164856    0.780104
C      2.334590   -0.766830   -0.216626
C      3.778030   -0.585586   -0.431119
O      4.465907    0.156141    0.320111
H     -2.705499    0.398909   -1.938975
H     -4.023958    0.679669   -0.739591
H     -2.729631    1.918738   -0.952347
H     -2.394953    0.567462    1.129746
H     -2.369430   -0.945656    0.146949
H     -0.354401   -0.104188   -1.095448
H     -0.374427    1.406609   -0.106643
H     -0.017091   -1.466293    1.001333
H     -0.075065    0.042019    1.980386
H      2.206336    0.470230    1.480198
H      1.799488   -1.417093   -0.898105
H      4.259096   -1.100021   -1.252159
