44

C      3.939272    0.851733    0.667362
C      2.715192    0.183976    0.035074
C      3.086438   -1.215063   -0.504386
C      1.997635   -1.828662   -1.406784
C      0.855787   -2.515208   -0.628728
C     -0.440772   -2.456692   -1.406747
C     -1.480864   -1.626581   -1.171252
C     -1.600032   -0.645187   -0.017100
C     -2.726440   -1.042774    0.928572
C     -3.161901    0.251654    1.621383
C     -2.697219    1.410834    0.730351
C     -1.977185    0.775122   -0.467125
C     -0.834609    1.628960   -1.108068
C     -0.077479    2.623224   -0.236896
C      0.732726    2.376226    0.805706
C      0.874991    1.086802    1.490589
O      0.250927    0.914555    2.569801
O      1.691162    0.050904    1.018519
O      0.062561    0.809685   -1.802509
O     -4.555556    0.288063    1.785304
H      3.669355    1.859110    1.048100
H      4.318903    0.240799    1.514134
H      4.746596    0.971526   -0.086206
H      2.371506    0.821357   -0.805223
H      3.318291   -1.903981    0.337687
H      4.010503   -1.123027   -1.117059
H      1.613694   -1.054870   -2.100580
H      2.475258   -2.596093   -2.055221
H      0.751956   -2.134590    0.401052
H      1.120843   -3.586647   -0.498806
H     -0.508837   -3.104508   -2.276262
H     -2.329712   -1.695744   -1.846495
H     -0.683368   -0.605354    0.571224
H     -3.582221   -1.467366    0.355358
H     -2.380851   -1.797659    1.668473
H     -2.658249    0.330398    2.613830
H     -2.031685    2.068028    1.325309
H     -3.553653    2.028109    0.378711
H     -2.756325    0.652680   -1.257458
H     -1.357984    2.263695   -1.863435
H     -0.154947    3.660968   -0.541133
H      1.192210    3.227228    1.292855
H      0.525133    1.379762   -2.471984
H     -4.771048   -0.355396    2.510060
