19

C      0.691681    0.689744   -0.131887
C     -0.313743   -0.391834    0.319771
C     -1.597603   -0.388677   -0.541999
C     -2.369660    0.890420   -0.368082
O     -2.964697    1.133054    0.715290
O     -2.410659    1.822615   -1.397267
O     -2.406958   -1.474989   -0.171675
O      0.287593   -1.663707    0.288708
C      1.907014    0.705321    0.754836
O      1.864123    1.339719    1.842874
C      3.130549   -0.033124    0.401801
O      3.198059   -0.691303   -0.669709
O      4.225657   -0.007983    1.256447
H      0.986618    0.520654   -1.190226
H      0.214031    1.691955   -0.083309
H     -0.601338   -0.183949    1.374761
H     -1.305901   -0.494004   -1.613551
H     -3.064843   -1.606518   -0.904122
H      0.530078   -1.857394   -0.654856
