50

C     -2.112357   -3.283403    2.835374
C     -1.667047   -2.548746    1.613532
O     -0.586731   -2.874221    1.050837
N     -2.469336   -1.480632    1.089991
C     -2.045124   -0.665265   -0.056426
C     -0.998438    0.392512    0.389830
C     -1.697090    1.708923    0.785808
C     -2.617880    2.217569   -0.371650
O     -2.878362    1.215865   -1.348674
C     -3.274010    0.007746   -0.730482
O     -3.802197   -0.841888   -1.713842
C     -1.987052    3.427337   -1.078831
O     -2.831377    3.897023   -2.096752
O     -2.474403    1.508256    1.940690
O     -0.115310    0.670211   -0.688366
C      1.090182   -0.061263   -0.575242
C      1.807475   -0.019696   -1.935240
C      3.155640   -0.759217   -1.835256
C      3.957411   -0.228439   -0.633494
C      3.074759   -0.226948    0.637533
O      1.901860    0.538758    0.422187
C      3.831225    0.368127    1.788072
O      4.006517    1.614166    1.855565
O      4.369375   -0.461366    2.766634
O      5.126374   -0.988395   -0.443461
O      3.902304   -0.566256   -3.009605
O      0.993741   -0.632917   -2.903164
H     -1.387519   -4.085182    3.097560
H     -2.187920   -2.573761    3.686289
H     -3.106786   -3.742089    2.650587
H     -3.367910   -1.262220    1.578227
H     -1.568845   -1.335431   -0.808440
H     -0.453396    0.027449    1.295351
H     -0.910717    2.467501    1.015412
H     -3.587676    2.567131    0.054413
H     -4.079222    0.219482    0.016837
H     -4.242877   -1.594396   -1.237143
H     -1.018175    3.127965   -1.533851
H     -1.783260    4.244355   -0.347972
H     -3.562632    4.399123   -1.650267
H     -1.846956    1.444157    2.705692
H      0.872552   -1.129287   -0.328922
H      1.989570    1.049734   -2.201779
H      2.960583   -1.847949   -1.680309
H      4.261937    0.819779   -0.853512
H      2.805557   -1.272535    0.916524
H      4.897770   -0.076523    3.540507
H      4.850048   -1.914969   -0.214507
H      3.564517   -1.221282   -3.677054
H      1.241207   -0.238894   -3.779207
