50

C     -3.187588    2.904323    0.302500
C     -3.833335    1.607803   -0.137159
C     -3.117521    0.654675   -0.796206
C     -3.747281   -0.680788   -1.218753
C     -5.285398   -0.544433   -1.378517
C     -5.947220    0.096066   -0.159163
C     -5.261928    1.376484    0.204016
O     -5.909337    2.243493    0.851216
C     -3.181989   -1.144883   -2.581557
C     -3.409598   -1.750461   -0.157575
C     -1.662747    0.838909   -1.015196
C     -0.790585    0.700257   -0.011227
C      0.676243    0.813318   -0.195572
C      1.473971    0.098738    0.622823
C      2.949428    0.061702    0.518190
C      3.677773   -0.646277    1.391543
C      5.160887   -0.734050    1.337150
C      5.752885   -1.769307    1.967542
C      7.235067   -2.033180    1.967612
O      7.907825   -1.084056    2.747557
C      5.958246    0.275410    0.540123
C      1.242429    1.699369   -1.280926
H     -2.503243    3.294703   -0.481798
H     -2.615981    2.734970    1.240559
H     -3.943659    3.695960    0.486991
H     -5.513934    0.088608   -2.267385
H     -5.747884   -1.541021   -1.558139
H     -5.917618   -0.597706    0.709600
H     -7.015443    0.299328   -0.397135
H     -2.094833   -1.366165   -2.516035
H     -3.335200   -0.359308   -3.352149
H     -3.691796   -2.072405   -2.921466
H     -2.313386   -1.930460   -0.116644
H     -3.908010   -2.714204   -0.398235
H     -3.731876   -1.427828    0.854791
H     -1.318214    0.994517   -2.026991
H     -1.168778    0.435688    0.970734
H      1.014077   -0.512494    1.393738
H      3.440543    0.581690   -0.293253
H      3.161791   -1.208799    2.164662
H      5.136704   -2.494165    2.492453
H      7.430914   -3.053186    2.366906
H      7.626648   -2.004852    0.929829
H      7.664203   -1.265551    3.692652
H      5.473319    1.273496    0.584263
H      6.024150   -0.054435   -0.518726
H      6.983012    0.415283    0.939630
H      0.477850    2.401202   -1.674117
H      1.623607    1.074015   -2.115373
H      2.062809    2.330004   -0.879622
