15

C     -0.888119   -0.336030   -0.737034
C      0.107422    0.641790   -0.146359
C      1.358323    0.281196    0.229424
C      1.944242   -1.076339    0.180456
O      1.242501   -2.104241   -0.003077
O      3.309090   -1.224153    0.390142
C     -0.330962    2.051006    0.042856
O      0.469330    2.928102    0.465979
O     -1.640382    2.423429   -0.239080
C     -1.619762   -1.077522    0.340012
O     -1.721216   -2.331398    0.288273
O     -2.232941   -0.382507    1.375459
H     -1.637184    0.199544   -1.357016
H     -0.388370   -1.036531   -1.438451
H      2.028028    1.043653    0.608417
