20

C      2.228452    0.382164    0.647624
C      1.082794   -0.143114   -0.236940
C     -0.213531   -0.365467    0.580329
C     -1.372027   -0.762202   -0.311061
O     -1.345598   -1.826749   -0.911382
C     -2.553281    0.148810   -0.476957
O     -2.154577    1.310201   -1.148801
O     -0.029184   -1.314035    1.603199
O      1.478306   -1.344508   -0.849532
O      1.898324    1.620895    1.216571
H      3.158401    0.480455    0.042368
H      2.440144   -0.342097    1.462713
H      0.867570    0.620500   -1.022024
H     -0.475584    0.598306    1.068917
H     -3.352260   -0.364719   -1.057966
H     -2.957099    0.408577    0.526650
H     -2.963204    1.881943   -1.212953
H      0.204982   -2.180866    1.179927
H      2.093523   -1.101968   -1.590286
H      1.963850    2.293876    0.489601
