37

C     -1.167233    2.936103   -0.486491
C     -1.737738    1.562199   -0.237840
C     -0.888545    0.478986    0.066017
C     -1.418954   -0.810895    0.277541
C     -2.814030   -1.014538    0.222708
C     -3.654908    0.077302   -0.055493
C     -3.132241    1.350933   -0.288831
O     -4.028461    2.386266   -0.566722
O     -3.334646   -2.301991    0.438309
C     -4.718862   -2.635204    0.406476
C     -0.462799   -1.922692    0.519744
O     -0.864000   -3.071701    0.847329
C      1.006134   -1.693186    0.316119
C      1.375083   -0.271268    0.756919
O      0.497022    0.679915    0.152321
C      2.806365    0.045472    0.398762
C      3.153685    0.398858   -0.918068
C      4.486169    0.661919   -1.250058
C      5.483154    0.564772   -0.276028
C      5.150049    0.199813    1.030946
C      3.818795   -0.064229    1.367913
H     -0.058992    2.953998   -0.444706
H     -1.467909    3.289396   -1.495221
H     -1.547252    3.642679    0.281026
H     -4.727800   -0.050857   -0.101920
H     -3.738809    3.339956   -0.740784
H     -5.141578   -2.416458   -0.596823
H     -4.834893   -3.719137    0.611230
H     -5.266921   -2.066088    1.186788
H      1.593402   -2.430956    0.905915
H      1.237262   -1.834745   -0.761965
H      1.241951   -0.201164    1.860296
H      2.393938    0.468165   -1.686759
H      4.746304    0.937592   -2.263870
H      6.514294    0.767475   -0.535099
H      5.924277    0.118083    1.782872
H      3.578686   -0.354775    2.383160
