23

C     -2.063359   -0.563450    0.725921
C     -0.814180   -0.002753    0.019477
C      0.211943    0.510951    1.060680
C      1.624154    0.820921    0.480676
C      2.518813   -0.425397    0.290487
O      2.022470   -1.288834   -0.697123
O      1.564537    1.613987   -0.679825
O     -0.303946    1.669016    1.670337
O     -1.191130    1.051812   -0.832392
C     -3.019673   -1.167319   -0.255896
O     -2.845758   -2.344669   -0.667112
O     -4.078028   -0.415164   -0.749752
H     -1.765979   -1.346769    1.457054
H     -2.579189    0.246543    1.286010
H     -0.354858   -0.829644   -0.565712
H      0.335450   -0.281443    1.837480
H      2.150336    1.430490    1.248144
H      2.578933   -0.984101    1.248654
H      3.556705   -0.100688    0.043344
H      2.454226   -1.031912   -1.553175
H      1.294115    1.034865   -1.437301
H      0.135822    1.753616    2.556756
H     -1.431405    0.649942   -1.707909
