38

C     -2.034299   -2.663334    0.221934
C     -1.184663   -1.477360   -0.263267
C      0.208898   -1.963203   -0.741879
C      1.250680   -1.922548    0.379079
C      1.446947   -0.490658    0.956884
C      0.211520    0.441809    0.753192
C     -1.109846   -0.363964    0.838775
C     -2.347700    0.585409    0.769897
C     -2.075701    1.955175    0.099887
C     -0.916444    1.913775   -0.873460
C      0.194817    1.234745   -0.539638
C     -0.995702    2.620459   -2.198148
C      2.769805    0.178510    0.577467
C      3.316310    0.014940   -0.637320
C      3.424653    1.090839    1.548390
O      2.879628    1.341318    2.655980
O      4.645659    1.687440    1.252188
H     -1.543801   -3.172941    1.078391
H     -2.173120   -3.398130   -0.599593
H     -3.039230   -2.316954    0.542391
H     -1.692958   -1.061802   -1.162794
H      0.149518   -2.996085   -1.149641
H      0.555295   -1.321826   -1.580129
H      2.208967   -2.355316    0.020909
H      0.903038   -2.601123    1.189843
H      1.505430   -0.660676    2.056116
H      0.220466    1.181915    1.585823
H     -1.120506   -0.856419    1.838561
H     -3.192803    0.090630    0.244015
H     -2.708744    0.776884    1.804292
H     -1.823431    2.694775    0.890757
H     -3.001910    2.312729   -0.399088
H      1.020032    1.190469   -1.240354
H     -1.963853    3.150754   -2.313915
H     -0.176551    3.366311   -2.275337
H     -0.896120    1.882664   -3.022149
H      2.846560   -0.597259   -1.393953
H      4.239159    0.508048   -0.914106
