25

C     -1.126548    1.481058   -1.516956
N     -1.506648    0.590918   -0.423165
C     -2.881850    0.210617   -0.133971
C     -2.768545   -0.933445    0.884807
C     -1.297409   -1.133792    1.032679
C     -0.627173   -0.261425    0.301493
C      0.849814   -0.201954    0.236327
C      1.607643   -1.377028    0.105371
N      2.966664   -1.317872    0.049822
C      3.630943   -0.131335    0.127755
O      4.889455   -0.107710    0.073305
C      2.917482    1.061218    0.272105
C      1.523905    1.023100    0.330271
H     -0.424645    0.960994   -2.202295
H     -2.024259    1.787750   -2.094482
H     -0.647721    2.394990   -1.112537
H     -3.382184   -0.145189   -1.061015
H     -3.434968    1.075129    0.292107
H     -3.245439   -1.861161    0.502388
H     -3.212747   -0.643896    1.861108
H     -0.841862   -1.879273    1.672195
H      1.114522   -2.339065    0.033521
H      3.506723   -2.206465   -0.055520
H      3.436849    2.008738    0.346933
H      0.977998    1.945098    0.477754
