39

C     -4.187501   -2.538517    2.060151
C     -3.218934   -2.994581    1.162242
C     -2.681697   -2.124884    0.207907
C     -3.122097   -0.789680    0.137512
C     -4.078371   -0.335815    1.059880
C     -4.614012   -1.209016    2.011566
N     -2.565812    0.133682   -0.813414
C     -2.127463   -0.235676   -2.130428
O     -2.470832   -1.338853   -2.635548
C     -1.246488    0.690755   -2.917085
C      0.234248    0.310332   -2.785864
C      0.759771    0.494088   -1.353767
C      2.270293    0.226304   -1.284102
C      2.804596    0.216282    0.156650
C      2.780324    1.605366    0.807164
C      3.445360    1.563738    2.149895
O      2.754173    1.356640    3.183323
N      4.863731    1.709236    2.257240
O      5.473547    1.647550    3.465214
H     -4.600416   -3.212719    2.799229
H     -2.877011   -4.020449    1.212151
H     -1.906755   -2.489218   -0.453143
H     -4.414127    0.693317    1.034215
H     -5.357693   -0.853974    2.713333
H     -2.528058    1.144887   -0.550973
H     -1.537012    0.639658   -3.988928
H     -1.398303    1.740971   -2.585696
H      0.377843   -0.744760   -3.107948
H      0.820300    0.958489   -3.473828
H      0.549990    1.533750   -1.023382
H      0.232580   -0.209661   -0.673661
H      2.817191    0.987407   -1.882867
H      2.480207   -0.769659   -1.732405
H      2.215177   -0.499026    0.771579
H      3.854761   -0.149661    0.129038
H      1.732348    1.950018    0.935254
H      3.308289    2.338327    0.159633
H      5.439532    1.881902    1.402628
H      5.718319    0.693451    3.577237
