48

C     -6.958149    1.407677   -0.060033
C     -5.696202    1.354285    0.799019
C     -5.127670   -0.043174    0.864419
C     -4.424209   -0.634711   -0.122045
C     -4.186712   -0.028303   -1.482002
C     -2.855927   -0.458724   -2.043989
C     -1.666980    0.073392   -1.697508
C     -1.474575    1.164824   -0.673169
C     -1.566825    0.638705    0.739535
C     -0.632205   -0.127967    1.337019
C      0.662730   -0.554269    0.687932
C      1.623880    0.607810    0.576751
C      2.744291    0.589882   -0.172144
C      3.203223   -0.588067   -1.004160
C      3.858582   -1.700427   -0.158407
C      5.372363   -1.505811    0.054421
C      5.696659   -0.384021    1.050027
C      7.169580   -0.346508    1.328794
O      7.640682   -0.996639    2.297352
O      8.030249    0.361974    0.494853
H     -7.743797    0.746401    0.368529
H     -6.744797    1.092069   -1.100666
H     -7.346707    2.449289   -0.081006
H     -4.934129    2.072691    0.426863
H     -5.966000    1.673137    1.828798
H     -5.257142   -0.592100    1.795052
H     -4.077487   -1.654442    0.045954
H     -4.985088   -0.404314   -2.155655
H     -4.254215    1.078724   -1.486278
H     -2.863299   -1.224512   -2.813467
H     -0.782880   -0.278860   -2.221513
H     -0.483657    1.642999   -0.828934
H     -2.230448    1.965153   -0.821895
H     -2.440038    0.919477    1.323056
H     -0.813932   -0.450062    2.359415
H      0.449124   -0.998899   -0.304695
H      1.127042   -1.343711    1.317373
H      1.391575    1.525546    1.108523
H      3.334018    1.502167   -0.224319
H      2.341180   -1.005226   -1.570526
H      3.923487   -0.226089   -1.771090
H      3.721644   -2.665200   -0.701398
H      3.350812   -1.815027    0.822579
H      5.784542   -2.462023    0.449034
H      5.873055   -1.306862   -0.917608
H      5.145190   -0.549493    2.003597
H      5.389534    0.598934    0.636696
H      7.679628    0.880307   -0.303083
