39

C     -4.897156    2.495295    0.963455
C     -4.560858    1.349652    0.013283
C     -3.581211    0.363416    0.659366
C     -3.254278   -0.794608   -0.295583
C     -2.224384   -1.773811    0.307055
C     -0.808603   -1.616010   -0.273651
C     -0.155860   -0.275753    0.102933
C      1.293955   -0.162343   -0.397292
C      2.278568   -0.985980    0.455718
C      3.760946   -0.809156    0.058927
C      4.295489    0.612375    0.338475
C      5.780329    0.668457    0.155172
O      6.546362    0.384890    1.114725
O      6.313630    0.993155   -1.088200
O      3.977826   -1.198064   -1.276330
H     -5.370868    2.103020    1.888541
H     -3.976910    3.056752    1.231858
H     -5.606612    3.191987    0.469243
H     -5.500271    0.821122   -0.259625
H     -4.111901    1.771199   -0.912502
H     -2.651199    0.902134    0.937740
H     -4.034767   -0.048220    1.588024
H     -4.195690   -1.351266   -0.499464
H     -2.895411   -0.396624   -1.270274
H     -2.188290   -1.692037    1.415962
H     -2.559551   -2.810021    0.081383
H     -0.194232   -2.452320    0.119485
H     -0.845679   -1.719098   -1.380346
H     -0.734909    0.545946   -0.369448
H     -0.190128   -0.127348    1.204517
H      1.343014   -0.480610   -1.460814
H      1.577765    0.909528   -0.350057
H      2.032098   -2.064359    0.362255
H      2.159429   -0.711249    1.526837
H      4.338020   -1.509871    0.702670
H      3.826324    1.351942   -0.343759
H      4.048796    0.908303    1.381510
H      7.315920    1.019714   -1.232563
H      3.650300   -0.470140   -1.865707
