31

C     -1.511400   -0.303551   -1.107855
C     -0.117460   -0.930220   -1.270490
C      0.958964   -0.200933   -0.452796
C      2.352317   -0.767904   -0.752509
C      3.404140   -0.097885    0.084070
C      3.776352    1.167021   -0.141915
C      4.816042    1.839550    0.658824
O      5.396283    1.235976    1.600534
O      5.167624    3.156873    0.379879
C     -2.113977   -0.551844    0.283041
C     -3.556064   -0.031984    0.356236
C     -4.162834   -0.232803    1.749164
O     -4.254269   -1.596234    2.064541
H     -1.458895    0.789139   -1.308547
H     -2.180086   -0.754267   -1.873853
H      0.155923   -0.880692   -2.347462
H     -0.150954   -2.003591   -0.981104
H      0.750922   -0.320532    0.632054
H      0.938160    0.882793   -0.701193
H      2.359970   -1.856106   -0.524835
H      2.597390   -0.640598   -1.829886
H      3.881121   -0.677312    0.865706
H      3.304937    1.726264   -0.941262
H      4.722118    3.673367   -0.369225
H     -2.103443   -1.642479    0.499653
H     -1.505737   -0.030451    1.052485
H     -3.567757    1.054452    0.119421
H     -4.185421   -0.555873   -0.396196
H     -3.529968    0.271664    2.510156
H     -5.171444    0.237752    1.787756
H     -5.012553   -1.959591    1.536631
