33

C     -4.452995   -0.848517   -0.847814
C     -4.099124    0.568091   -0.389953
C     -2.574991    0.812668   -0.368510
C     -1.828010   -0.064310    0.655148
C     -0.364981    0.366660    0.848700
C      0.513797    0.037901   -0.370784
C      1.980943    0.451293   -0.170056
C      2.740303   -0.497147    0.774298
C      4.219461   -0.113049    0.912602
C      4.982491   -0.376913   -0.349265
O      5.305999    0.578501   -1.104563
O      5.311500   -1.682602   -0.699507
O     -4.660272    0.801519    0.875808
H     -4.135932   -1.599566   -0.094297
H     -3.966168   -1.075140   -1.820256
H     -5.552709   -0.933062   -0.978623
H     -4.548847    1.273083   -1.127658
H     -2.399345    1.884572   -0.130193
H     -2.171780    0.628091   -1.386959
H     -1.857728   -1.129715    0.341036
H     -2.335837    0.011619    1.640871
H     -0.319315    1.455862    1.068102
H      0.025017   -0.171221    1.737792
H      0.455928   -1.048244   -0.602392
H      0.129898    0.591260   -1.253506
H      2.474341    0.439159   -1.165928
H      2.030806    1.493052    0.216104
H      2.285700   -0.454255    1.785939
H      2.659211   -1.544852    0.409311
H      4.310330    0.957297    1.200784
H      4.672536   -0.717145    1.727684
H      5.817734   -1.879041   -1.554652
H     -4.647959    1.784154    1.017942
