48

C     -4.768635   -0.340151    2.108487
C     -5.667642   -1.141065    1.168572
C     -5.902519   -0.443326   -0.182135
C     -4.627974   -0.323525   -1.044134
C     -4.016728    1.087354   -0.981501
C     -2.738662    1.214333   -1.825711
C     -1.522157    0.562265   -1.151049
C     -0.249859    0.789237   -1.976524
C      0.968178    0.154749   -1.295952
C      2.221813    0.373933   -2.107106
C      3.439717   -0.044959   -1.718169
C      3.719168   -0.739703   -0.409539
C      4.008751    0.283163    0.698408
C      4.077497   -0.357434    2.096440
C      5.244003   -1.340289    2.283829
C      6.573474   -0.668045    2.132251
O      7.043626    0.021289    3.076399
O      7.274641   -0.779479    0.935687
H     -3.726647   -0.320537    1.726256
H     -4.758544   -0.822064    3.109048
H     -5.147886    0.698195    2.219527
H     -6.652445   -1.284016    1.664092
H     -5.227135   -2.148762    1.004003
H     -6.374972    0.550487   -0.017662
H     -6.643895   -1.053684   -0.743211
H     -3.884846   -1.089230   -0.737901
H     -4.895927   -0.537140   -2.102460
H     -4.763452    1.810154   -1.377736
H     -3.802338    1.379484    0.067730
H     -2.902101    0.768345   -2.831431
H     -2.527717    2.297200   -1.968531
H     -1.689809   -0.530415   -1.045142
H     -1.384565    0.999007   -0.137143
H     -0.382558    0.340441   -2.985928
H     -0.075437    1.881957   -2.093640
H      1.095392    0.605167   -0.288816
H      0.794799   -0.937276   -1.183015
H      2.145701    0.885274   -3.063548
H      4.282759    0.146464   -2.376131
H      4.612265   -1.383447   -0.553373
H      2.875225   -1.403154   -0.124920
H      4.956325    0.819565    0.475321
H      3.200875    1.045654    0.717337
H      3.123209   -0.890463    2.299881
H      4.164108    0.452025    2.854218
H      5.162654   -2.183941    1.567278
H      5.180450   -1.776833    3.303871
H      8.169822   -0.321823    0.813777
