30

C     -3.277496    1.491821   -0.020456
C     -2.679511    0.417211    0.896037
C     -2.185240   -0.810629    0.104793
C     -1.080744   -0.525258   -0.934302
C      0.191722    0.135152   -0.374122
C      0.890901   -0.724706    0.693007
C      2.254482   -0.141475    1.117294
C      3.445160   -0.753311    0.362294
C      3.471522   -0.352535   -1.081959
O      3.142659   -1.181897   -1.970572
O      3.835793    0.938776   -1.451710
O     -3.658320   -0.009923    1.807753
H     -3.720009    2.305993    0.591745
H     -2.491833    1.942855   -0.661244
H     -4.073642    1.058035   -0.662429
H     -1.825245    0.854887    1.460512
H     -3.049689   -1.265228   -0.427317
H     -1.822209   -1.578913    0.820597
H     -0.798245   -1.487509   -1.414562
H     -1.491187    0.115891   -1.742973
H     -0.045404    1.137300    0.040846
H      0.880233    0.300859   -1.227451
H      0.241643   -0.760764    1.593978
H      1.009826   -1.768520    0.328246
H      2.402440   -0.364190    2.196797
H      2.263152    0.966675    1.020258
H      3.423648   -1.861544    0.452347
H      4.386807   -0.404693    0.838028
H      4.097767    1.627812   -0.756953
H     -3.738981    0.697826    2.499885
