45

C      6.505390    1.166774    0.033317
C      5.026553    1.543292    0.112999
C      4.215769    0.598783    1.017523
C      4.173424   -0.869139    0.547935
C      3.621759   -1.086564   -0.875429
C      2.211230   -0.520948   -1.119372
C      1.144470   -1.173809   -0.228101
C     -0.260860   -0.695472   -0.612910
C     -1.325002   -1.328369    0.296764
C     -2.759441   -0.984108   -0.136730
C     -3.142700    0.470706    0.190308
C     -4.583831    0.820000   -0.240449
C     -5.628624    0.199632    0.704011
C     -7.018603    0.545033    0.266019
O     -7.626363    1.513881    0.795153
O     -7.623901   -0.182474   -0.753855
O     -4.738664    2.217073   -0.232866
H      7.058598    1.958263   -0.514781
H      6.637314    0.211328   -0.515556
H      6.938256    1.073026    1.051923
H      4.952087    2.570305    0.531529
H      4.592531    1.577450   -0.908085
H      4.648697    0.625871    2.041274
H      3.179879    0.988536    1.108191
H      3.564842   -1.453884    1.269783
H      5.196264   -1.298914    0.599260
H      4.320381   -0.638964   -1.613613
H      3.608948   -2.178965   -1.082027
H      2.206890    0.580096   -0.974998
H      1.952970   -0.709649   -2.184484
H      1.199659   -2.279507   -0.335282
H      1.333133   -0.908691    0.834243
H     -0.465813   -0.972977   -1.670296
H     -0.298096    0.410776   -0.522431
H     -1.212878   -2.434406    0.259551
H     -1.162303   -1.010040    1.349980
H     -2.879359   -1.174231   -1.225794
H     -3.441902   -1.673987    0.401181
H     -2.450219    1.149993   -0.349705
H     -3.017260    0.661405    1.278894
H     -4.763149    0.430579   -1.271328
H     -5.539569   -0.905854    0.710948
H     -5.464985    0.562617    1.742595
H     -8.557829    0.047200   -1.071933
H     -4.327695    2.558334   -1.070022
