37

C     -5.876406   -1.398611   -0.801595
C     -4.615426   -1.643680    0.027062
C     -3.372340   -0.957758   -0.561212
C     -3.396593    0.568744   -0.370613
C     -2.158437    1.257992   -0.966831
C     -0.890806    1.029099   -0.129869
C      0.287220    1.837875   -0.687616
C      1.522821    1.643282    0.143142
C      2.200237    0.492314    0.130399
C      3.417302    0.320223    0.939453
C      4.095407   -0.830420    0.926022
C      5.333120   -1.019900    1.750774
C      6.469241   -0.230442    1.182287
O      6.761350    0.895723    1.666405
O      7.179432   -0.724942    0.092824
H     -6.183284   -0.333882   -0.748661
H     -6.706960   -2.016068   -0.399205
H     -5.707251   -1.683711   -1.861713
H     -4.783167   -1.303029    1.071946
H     -4.429582   -2.739322    0.057712
H     -3.281368   -1.205969   -1.641439
H     -2.484779   -1.377192   -0.043092
H     -4.288935    0.985171   -0.883469
H     -3.482622    0.816779    0.710029
H     -2.363895    2.350242   -1.011550
H     -1.994275    0.904426   -2.008533
H     -1.079789    1.338045    0.921992
H     -0.626706   -0.049189   -0.140199
H      0.025113    2.918230   -0.681138
H      0.494715    1.540881   -1.739208
H      1.877919    2.475223    0.740703
H      1.851236   -0.328461   -0.486586
H      3.767720    1.141001    1.555822
H      3.747635   -1.659275    0.319880
H      5.610191   -2.095563    1.748653
H      5.139700   -0.721558    2.804420
H      7.942265   -0.196275   -0.313091
