39

C     -4.686179   -0.121615   -1.072928
C     -5.783240    0.191978   -1.881557
C     -6.921314    0.789486   -1.326066
C     -6.959200    1.066766    0.042823
C     -5.864943    0.754470    0.854931
C     -4.710907    0.168966    0.306699
C     -3.579602   -0.152747    1.211525
C     -2.318900   -0.333767    0.792647
C     -1.215737   -0.638480    1.726562
O     -1.429424   -0.734041    2.966142
C      0.186407   -0.794513    1.208416
C      0.903408    0.528421    1.072405
O      0.294831    1.604197    1.325536
C      2.315411    0.614229    0.641433
C      3.048148   -0.455856    0.296907
C      4.461960   -0.374286   -0.145903
C      5.302919    0.703976    0.197628
C      6.632909    0.729091   -0.234111
C      7.144737   -0.322709   -1.004005
C      6.321810   -1.402156   -1.335279
C      4.991933   -1.431576   -0.905041
O      8.467833   -0.306468   -1.439898
O     -8.018605    1.107015   -2.123427
H     -3.838095   -0.610831   -1.530960
H     -5.750170   -0.036698   -2.939261
H     -7.838473    1.524126    0.478716
H     -5.916575    0.978474    1.913690
H     -3.791164   -0.200871    2.273694
H     -2.068507   -0.229793   -0.253999
H      0.757043   -1.446621    1.904538
H      0.156297   -1.297248    0.217744
H      2.744372    1.605307    0.583775
H      2.589416   -1.436254    0.292695
H      4.951461    1.516960    0.817405
H      7.267057    1.563564    0.037074
H      6.713296   -2.220391   -1.926490
H      4.372153   -2.278556   -1.173729
H      9.089949    0.461136   -1.214944
H     -8.022319    0.917312   -3.118892
