48

C     -2.747548    1.127562   -0.755283
C     -1.345598    1.450178   -1.300774
C     -0.855184    2.844868   -0.884269
C     -0.487564    2.912715    0.614333
C      0.729094    3.773341    0.854897
C      1.994988    3.359178    0.648980
C      2.360546    1.972131    0.179563
C      2.446435    0.975624    1.353060
C      1.965101   -0.434537    0.976477
C      2.778462   -1.061939   -0.167990
C      2.334611   -2.499560   -0.486348
C      0.889828   -2.590325   -1.031289
C     -0.065116   -3.237539   -0.016530
C     -1.498530   -3.177181   -0.482513
O     -1.797923   -3.618391   -1.582237
C     -2.573363   -2.601528    0.404206
C     -2.491558   -1.072295    0.491024
C     -3.027998   -0.384536   -0.775739
H     -3.498493    1.643862   -1.392379
H     -2.874958    1.516932    0.278336
H     -0.606326    0.690651   -0.970904
H     -1.379910    1.400256   -2.411114
H      0.026581    3.093361   -1.514797
H     -1.633472    3.604773   -1.115942
H     -0.317826    1.903589    1.046615
H     -1.344730    3.350598    1.169718
H      0.571339    4.782184    1.224944
H      2.803525    4.059280    0.837803
H      3.352045    2.018226   -0.320279
H      1.640242    1.632741   -0.590930
H      3.494205    0.926722    1.722325
H      1.819817    1.323938    2.203771
H      2.042065   -1.083763    1.875729
H      0.895050   -0.375912    0.695380
H      3.851639   -1.081408    0.121922
H      2.690136   -0.449162   -1.090392
H      3.026814   -2.898570   -1.259876
H      2.471457   -3.139212    0.413653
H      0.894221   -3.213015   -1.953082
H      0.509513   -1.587664   -1.325978
H      0.217101   -4.303507    0.122114
H      0.032365   -2.732216    0.968353
H     -2.452262   -3.026713    1.423880
H     -3.579216   -2.908122    0.041297
H     -3.102394   -0.737760    1.357934
H     -1.445637   -0.763369    0.692837
H     -4.127363   -0.544334   -0.824211
H     -2.584209   -0.840154   -1.688216
