20

C     -3.272932    0.541811   -0.046837
C     -2.896356   -0.692366    0.486184
C     -1.546793   -1.055093    0.529925
C     -0.555558   -0.181759    0.048853
C     -0.949221    1.056377   -0.500896
C     -2.300984    1.413175   -0.542512
C      0.861976   -0.616249    0.109040
C      1.905157    0.219804    0.032913
C      3.313200   -0.291853    0.109465
O      3.549742   -0.895475    1.352424
H     -4.318249    0.820397   -0.081475
H     -3.650712   -1.369740    0.865235
H     -1.275271   -2.017061    0.947740
H     -0.227692    1.742935   -0.920303
H     -2.595726    2.364533   -0.966466
H      1.059328   -1.671658    0.262791
H      1.763834    1.286316   -0.072036
H      4.028639    0.545441   -0.053876
H      3.478696   -1.039874   -0.694677
H      3.628922   -0.159662    2.014599
