50

C      1.900618    3.910458   -2.080862
O      1.052412    2.891953   -1.562135
C      1.500513    1.750624   -0.873747
C      2.865639    1.514692   -0.635469
C      3.291312    0.361138    0.029946
C      2.334229   -0.561412    0.475809
C      0.958924   -0.343660    0.258237
C      0.541858    0.838085   -0.410020
O     -0.807485    1.173186   -0.635233
C     -1.944550    0.614129    0.017940
C     -3.134642    1.583486   -0.122586
C     -4.374334    0.969959    0.546001
C     -4.609631   -0.456987    0.033898
C     -3.294559   -1.274462    0.137393
O     -2.266015   -0.625301   -0.587833
C     -3.458377   -2.690683   -0.435231
O     -4.285325   -3.461814    0.394440
O     -5.614634   -1.050727    0.811524
O     -5.509829    1.752187    0.272411
O     -2.833870    2.805777    0.500207
O      0.004168   -1.286612    0.682045
C      0.296349   -2.499457    1.372480
C      4.740492    0.172643    0.283587
C      5.316315   -1.028343    0.400948
C      6.785823   -1.164777    0.668035
O      7.071893   -0.815329    1.995310
H      2.604385    3.476945   -2.820472
H      1.281857    4.682330   -2.589347
H      2.459041    4.394006   -1.253687
H      3.606412    2.224223   -0.970709
H      2.656991   -1.436945    1.022794
H     -1.704072    0.497302    1.102471
H     -3.356274    1.744239   -1.205469
H     -4.199041    0.920091    1.647881
H     -4.917584   -0.399033   -1.038787
H     -3.000051   -1.384874    1.209692
H     -3.886713   -2.644524   -1.463953
H     -2.454766   -3.171214   -0.494143
H     -4.350319   -4.352795   -0.029614
H     -6.241483   -1.504597    0.190427
H     -5.524928    2.481743    0.948940
H     -2.289667    3.334391   -0.136582
H      0.950689   -3.144492    0.752274
H     -0.648778   -3.037948    1.566131
H      0.781371   -2.280348    2.345327
H      5.367836    1.056266    0.334395
H      4.736940   -1.934490    0.269336
H      7.079807   -2.226194    0.518006
H      7.374479   -0.544582   -0.046321
H      7.146573    0.171746    2.021420
