42

C      3.592566    1.581710    0.517410
C      4.950268    1.375634    0.776510
C      5.611494    0.264900    0.234784
C      4.906987   -0.643228   -0.566422
C      3.544706   -0.435087   -0.826466
C      2.883354    0.684143   -0.295805
C      1.413096    0.885294   -0.546950
C      0.579883    0.161207    0.513455
O     -0.799108    0.391654    0.289745
C     -1.389071   -0.641082   -0.488840
C     -1.915617   -1.787016    0.421439
C     -3.397836   -1.588766    0.803378
C     -3.737620   -0.095418    0.840551
C     -3.478581    0.515735   -0.564177
O     -2.424780   -0.106657   -1.298833
C     -3.268659    2.037311   -0.511128
O     -4.435856    2.667825   -0.060100
O     -5.088336    0.083639    1.186579
O     -3.653872   -2.164393    2.058706
O     -1.777901   -3.023745   -0.230891
O      5.565592   -1.750313   -1.098471
O      6.965529    0.055825    0.490223
H      3.093839    2.439612    0.951302
H      5.487108    2.077969    1.401419
H      3.001664   -1.144722   -1.438925
H      1.168163    1.969998   -0.530560
H      1.149817    0.505983   -1.557916
H      0.843975   -0.922519    0.549779
H      0.834700    0.579607    1.510664
H     -0.647815   -1.071912   -1.203213
H     -1.314003   -1.801194    1.361549
H     -4.051664   -2.067505    0.034719
H     -3.084340    0.405992    1.595013
H     -4.399262    0.345678   -1.166184
H     -2.423109    2.292859    0.163583
H     -3.024501    2.404108   -1.533286
H     -4.238725    3.640475   -0.052673
H     -5.144210    0.030880    2.176429
H     -3.662633   -3.148148    1.924601
H     -0.819264   -3.276060   -0.170641
H      5.083094   -2.424949   -1.680672
H      7.500927    0.694678    1.066516
