33

C     -5.063135   -1.534756    0.434655
O     -4.903863   -0.279403   -0.218366
C     -3.666839    0.325086   -0.494961
C     -3.653625    1.571528   -1.148059
C     -2.439187    2.200334   -1.438649
C     -1.227667    1.601966   -1.085340
C     -1.222790    0.353334   -0.428870
C     -2.444823   -0.280106   -0.137925
C      0.017085   -0.219174   -0.091817
O      0.065506   -1.349289    0.468757
C      1.205285    0.468881   -0.405095
C      1.101420    1.704279   -1.063772
O     -0.084875    2.215240   -1.372822
C      2.542832   -0.077767   -0.063749
C      3.565319   -0.104350   -1.028650
C      4.828307   -0.610888   -0.707567
C      5.087948   -1.090893    0.579566
C      4.077103   -1.061170    1.549054
C      2.812833   -0.555955    1.230942
O      6.351017   -1.592677    0.885089
O     -4.841379    2.202756   -1.517601
H     -4.575420   -2.337880   -0.157233
H     -6.145039   -1.764053    0.519621
H     -4.627977   -1.492307    1.455460
H     -2.438588    3.159239   -1.942364
H     -2.442450   -1.238059    0.364442
H      1.992180    2.262803   -1.321553
H      3.381961    0.254895   -2.033802
H      5.605950   -0.631365   -1.460512
H      4.271163   -1.424785    2.550109
H      2.051242   -0.523240    2.000050
H      6.570597   -1.947339    1.808610
H     -5.750092    1.795115   -1.333228
