39

C     -3.243103   -1.293278    1.081467
C     -2.609350   -0.566485    0.058911
C     -3.325245    0.444746   -0.602703
C     -4.649866    0.727682   -0.253654
C     -5.278240   -0.002792    0.769019
C     -4.570288   -1.015995    1.437293
O     -5.187703   -1.744364    2.453275
O     -6.600134    0.286214    1.110600
O     -5.325793    1.739603   -0.935197
C     -1.207655   -0.856171   -0.316629
O     -0.568182   -1.765341    0.280861
O     -0.597278   -0.124679   -1.343879
C      0.775016   -0.262999   -1.710976
C      1.666993    0.629878   -0.829371
C      3.143737    0.639661   -1.318736
C      4.050687    1.081510   -0.164657
C      3.900337    0.121966    1.036291
C      2.502220   -0.545428    1.072448
O      1.499297    0.312879    0.552562
O      2.507828   -1.771507    0.382536
O      4.106937    0.828780    2.232807
O      5.393206    1.097520   -0.579726
O      3.289527    1.533101   -2.394021
H     -2.710473   -2.076852    1.606187
H     -2.859855    1.020421   -1.393269
H     -4.700398   -2.480098    2.951415
H     -7.091107   -0.215219    1.841005
H     -6.285202    1.985160   -0.722511
H      1.086964   -1.327839   -1.667181
H      0.873887    0.061895   -2.767870
H      1.285219    1.668233   -0.949440
H      3.456711   -0.385294   -1.633175
H      3.740267    2.106599    0.154455
H      4.663480   -0.689107    0.960324
H      2.234830   -0.747321    2.135806
H      2.978703   -2.427429    0.960430
H      5.080399    1.016400    2.290967
H      5.539513    1.955195   -1.057975
H      3.034113    1.040757   -3.216968
