45

C      6.739503    0.484061    1.064092
O      6.546551   -0.902990    0.806378
C      5.304422   -1.555042    0.855695
C      5.259165   -2.928657    0.576508
C      4.037147   -3.613315    0.609038
C      2.858140   -2.934843    0.922706
C      2.888764   -1.564420    1.218573
C      4.111368   -0.875274    1.172577
C      1.612040   -0.826567    1.522360
C      0.985730   -0.283526    0.233216
C     -0.270286    0.486792    0.521507
C     -1.394890   -0.132434    0.901313
C     -2.667209    0.566877    1.183109
O     -3.662847   -0.124349    1.527682
C     -2.841221    2.058214    1.044103
C     -3.019336    2.483366   -0.420329
C     -4.292316    1.933100   -1.011388
C     -5.518914    2.574986   -0.772201
C     -6.703648    2.047161   -1.294944
C     -6.673223    0.873131   -2.052619
C     -5.458204    0.223378   -2.286748
C     -4.271115    0.748012   -1.766410
O      6.435950   -3.607187    0.263836
H      6.163366    1.091751    0.334690
H      7.816470    0.726394    0.955728
H      6.422881    0.727661    2.100258
H      4.000117   -4.672368    0.387545
H      1.920683   -3.477199    0.933886
H      4.123629    0.186095    1.382018
H      0.898767   -1.509778    2.033579
H      1.819638    0.014730    2.220196
H      1.710886    0.395501   -0.266409
H      0.759281   -1.117946   -0.466734
H     -0.243130    1.558560    0.381866
H     -1.386189   -1.211028    1.009541
H     -1.966867    2.583428    1.482492
H     -3.727052    2.385596    1.631918
H     -2.143379    2.160050   -1.023151
H     -3.044074    3.593786   -0.468727
H     -5.556500    3.480973   -0.180003
H     -7.645835    2.546702   -1.110016
H     -7.591299    0.465104   -2.455219
H     -5.436542   -0.688788   -2.868923
H     -3.337656    0.229386   -1.947412
H      6.437239   -4.599084    0.056327
