30

C     -4.641685    0.158151   -0.088207
C     -3.189015   -0.244986   -0.065298
C     -2.831126   -1.588045   -0.266200
C     -1.484490   -1.953060   -0.311234
C     -0.472989   -0.997793   -0.133359
C     -0.815805    0.354602    0.097794
C     -2.184607    0.737901    0.051267
O     -2.581428    2.079181    0.077332
C      0.275750    1.313517    0.435204
O      0.014500    2.415892    0.987743
C      1.691414    0.937771    0.216413
C      2.023196   -0.396063   -0.090435
C      0.951376   -1.408777   -0.204219
O      1.251004   -2.622769   -0.375483
C      3.372017   -0.751639   -0.274742
C      4.381273    0.208122   -0.156986
C      4.049442    1.532247    0.149347
C      2.714371    1.895544    0.337602
O      5.710199   -0.164915   -0.345707
O     -3.817368   -2.560410   -0.437674
H     -4.934486    0.426866   -1.124635
H     -4.822381    1.027933    0.578012
H     -5.294806   -0.664621    0.271014
H     -1.230799   -2.991650   -0.484554
H     -1.967315    2.850539   -0.142985
H      3.645281   -1.772578   -0.511471
H      4.825723    2.281027    0.243067
H      2.482215    2.926492    0.573986
H      6.465103    0.506549   -0.267174
H     -3.584565   -3.535028   -0.588993
