27

C      2.957006    0.846128    0.338971
O      1.650299    0.427178    0.666590
C      1.043136   -0.242156   -0.429803
C      0.235811   -1.446590    0.096871
C     -0.961354   -0.988862    0.960693
C     -1.873122   -0.037188    0.164416
C     -1.087926    1.180329   -0.367671
C      0.132211    0.734382   -1.209790
O     -0.300552    0.117189   -2.396373
O     -0.675824    1.987132    0.707194
O     -2.923719    0.394760    0.990764
O     -1.714356   -2.106667    1.358506
O      1.088708   -2.268408    0.853411
H      3.625806   -0.030810    0.195313
H      2.964051    1.492135   -0.566451
H      3.359266    1.443392    1.182603
H      1.795292   -0.658718   -1.145611
H     -0.150135   -2.017114   -0.782524
H     -0.583317   -0.447945    1.861569
H     -2.295250   -0.601258   -0.701472
H     -1.774652    1.769763   -1.019799
H      0.733224    1.635238   -1.474196
H     -0.629674    0.838633   -2.994009
H     -0.424682    2.868601    0.325452
H     -3.622595    0.770524    0.393773
H     -1.284479   -2.471461    2.175756
H      0.716826   -3.188207    0.815819
