49

C      3.573620   -0.620764    1.586666
C      4.495284   -0.709723    0.354875
C      3.663611   -0.833051   -0.948070
C      2.291405   -0.150898   -0.785695
C      1.540653   -0.760183    0.434446
O      2.399186   -1.381265    1.384299
O      0.752872    0.237321    1.090252
C     -0.378694    0.817084    0.501337
C     -1.552367    0.077600    0.257830
O     -2.572460    0.654039   -0.366354
C     -2.566266    1.920285   -0.765340
C     -3.708579    2.428037   -1.388807
C     -3.760096    3.759131   -1.793823
C     -2.651049    4.586256   -1.600999
C     -1.477032    4.096590   -1.014986
C     -1.433351    2.748011   -0.547865
C     -0.341250    2.169022    0.141815
O      0.673060    2.842618    0.459547
O     -0.397162    4.982962   -0.952035
O     -4.917539    4.250804   -2.393544
C     -1.711487   -1.326592    0.696341
C     -1.297005   -1.741674    1.974597
C     -1.462793   -3.070643    2.380381
C     -2.062309   -3.997329    1.510783
C     -2.496878   -3.581337    0.244875
C     -2.329728   -2.253572   -0.156758
O     -2.227237   -5.323495    1.907755
O     -1.029212   -3.449986    3.650608
O      1.519059   -0.323495   -1.946452
O      4.371066   -0.307542   -2.044183
O      5.343624   -1.821007    0.486865
H      4.103503   -1.010222    2.482061
H      3.324090    0.443008    1.809083
H      5.109276    0.221296    0.334212
H      3.477790   -1.911500   -1.152301
H      2.455032    0.937183   -0.597346
H      0.873079   -1.563199    0.056559
H     -4.567934    1.787744   -1.543164
H     -2.688231    5.615419   -1.937050
H      0.564368    4.713794   -0.814392
H     -4.986789    5.213787   -2.701963
H     -0.856000   -1.033149    2.665013
H     -2.964469   -4.287191   -0.429486
H     -2.669805   -1.952311   -1.140206
H     -2.659961   -6.009715    1.299737
H     -1.127282   -4.398400    3.992327
H      1.820465    0.361127   -2.598812
H      4.480317    0.667893   -1.892339
H      6.061605   -1.712767   -0.190295
