32

C     -5.116486    1.771575    0.533051
C     -3.935377    0.900951    0.247848
C     -2.643089    1.362640    0.503080
C     -1.555765    0.527760    0.226211
C     -0.256359    0.964235    0.489570
C      0.843902    0.157260    0.181460
C      2.137918    0.641645    0.429131
C      3.263381   -0.118793    0.082066
C      3.084357   -1.351617   -0.542293
C      1.802588   -1.851490   -0.811259
C      0.653086   -1.129533   -0.391025
C     -0.676857   -1.617692   -0.554500
C     -1.779814   -0.761768   -0.302257
C     -3.124892   -1.149919   -0.528341
O     -3.407607   -2.281997   -1.003207
O     -4.122525   -0.316279   -0.249466
O     -0.934435   -2.945277   -0.911488
O      1.695032   -3.035134   -1.540034
O      4.574104    0.320483    0.323391
C      4.908365    1.555941    0.947583
H     -5.048163    2.705397   -0.063731
H     -5.143296    2.026625    1.613350
H     -6.056975    1.244760    0.266403
H     -2.492448    2.355680    0.912091
H     -0.099250    1.950057    0.915624
H      2.263061    1.615253    0.885863
H      3.956000   -1.918701   -0.845287
H     -0.320056   -3.713714   -0.681599
H      2.510675   -3.546331   -1.857223
H      4.524657    2.405099    0.343516
H      6.012214    1.640035    1.016728
H      4.484055    1.592849    1.973193
