34

C     -5.920047    0.740438    0.345905
O     -4.886134   -0.071146   -0.200015
C     -3.499821    0.109295   -0.029658
C     -2.641547   -0.816590   -0.661769
C     -1.237708   -0.694453   -0.531749
C     -0.703651    0.362495    0.237420
C     -1.552679    1.275442    0.858942
C     -2.941701    1.162699    0.735756
O     -3.750169    2.099912    1.376384
O      0.611093    0.501414    0.379471
C      1.494378   -0.325908   -0.172305
C      1.045065   -1.392216   -0.963621
C     -0.325531   -1.581309   -1.143087
O     -0.719464   -2.543420   -1.856147
C      2.938029   -0.075300    0.042094
C      3.406677    1.249807    0.012394
C      4.761969    1.528405    0.205622
C      5.663286    0.489656    0.441130
C      5.210089   -0.829852    0.495601
C      3.850120   -1.121303    0.309622
O      3.407079   -2.439427    0.418435
O     -3.183105   -1.859189   -1.419662
H     -5.880477    0.719316    1.455224
H     -5.835891    1.779396   -0.036297
H     -6.901132    0.332983    0.026962
H     -1.127548    2.081263    1.444986
H     -3.360396    2.856878    1.926083
H      1.747316   -2.052250   -1.458163
H      2.724040    2.069477   -0.176912
H      5.113899    2.551380    0.170573
H      6.712981    0.707775    0.589803
H      5.915511   -1.626428    0.695359
H      4.045471   -3.200729    0.617667
H     -4.180001   -1.988511   -1.542264
