38

C      0.200426   -3.269752   -1.172631
C      0.868730   -2.063336   -0.596905
C      0.261699   -0.843737   -0.283511
C      1.286450   -0.065473    0.221640
C      1.313927    1.252193    0.675060
C      2.542882    1.778524    1.114977
C      3.720432    0.982165    1.084492
C      3.652233   -0.348341    0.601311
C      2.419405   -0.832411    0.175476
O      2.158027   -2.019816   -0.315125
O      4.926172    1.542758    1.534140
C      6.174038    0.857413    1.556524
O      2.579776    3.093908    1.576620
C     -1.160655   -0.471059   -0.437771
C     -1.837197   -0.728556   -1.638972
C     -3.183806   -0.378910   -1.788121
C     -3.875274    0.236303   -0.728393
C     -3.193633    0.493863    0.476577
C     -1.849074    0.142769    0.617911
O     -5.226199    0.575309   -0.905306
C     -6.037649    1.200253    0.083913
O     -3.818236   -0.649524   -3.000499
H      0.140766   -3.171759   -2.276064
H      0.788089   -4.177850   -0.923679
H     -0.820756   -3.382150   -0.751965
H      0.420326    1.862224    0.681925
H      4.523334   -0.987099    0.552249
H      6.462901    0.556508    0.527345
H      6.953072    1.536187    1.959884
H      6.107071   -0.036421    2.212108
H      3.434819    3.526610    1.904460
H     -1.316317   -1.184431   -2.471306
H     -3.694752    0.961978    1.312642
H     -1.350692    0.334791    1.560031
H     -6.108375    0.553757    0.984042
H     -5.614213    2.190263    0.355550
H     -7.057276    1.350677   -0.326040
H     -4.790472   -0.417827   -3.164808
