36

C     -5.506510   -0.650740   -0.688063
C     -5.091781    0.679213   -0.799810
C     -4.213812    1.221138    0.144065
C     -3.747633    0.434527    1.210386
C     -4.164730   -0.903303    1.313246
C     -5.042757   -1.441360    0.367040
C     -2.784995    1.016663    2.209292
N     -1.476012    1.218781    1.591495
C     -0.599015    0.122945    1.275238
O     -0.921650   -1.046182    1.625204
C      0.679802    0.350125    0.549202
C      1.504211   -0.683771    0.278423
C      2.799831   -0.570054   -0.431612
C      3.752537    0.402475   -0.078025
C      4.984875    0.464755   -0.744620
C      5.278510   -0.457591   -1.756890
C      4.342992   -1.445315   -2.091951
C      3.115861   -1.507151   -1.426151
O      6.502408   -0.390327   -2.420171
O      5.923713    1.436359   -0.402342
C      0.983332    1.681713    0.072127
N      1.224547    2.747181   -0.310297
H     -6.185386   -1.069101   -1.419874
H     -5.449002    1.289750   -1.619015
H     -3.894973    2.251425    0.044167
H     -3.810102   -1.529517    2.122415
H     -5.362252   -2.472082    0.450780
H     -2.682747    0.366349    3.105401
H     -3.180708    1.994196    2.561358
H     -1.183298    2.200935    1.391229
H      1.196119   -1.688764    0.541966
H      3.551013    1.097751    0.727057
H      4.566992   -2.167462   -2.866765
H      2.406059   -2.280126   -1.695136
H      6.743525   -1.044918   -3.155205
H      5.741036    2.117012    0.325836
