37

C      2.299401    3.481744    0.354160
O      2.131782    2.073891    0.223840
C      0.896075    1.408259    0.261420
C      0.851507   -0.008978    0.119286
C      1.992881   -0.814347   -0.063000
C      1.859672   -2.173745   -0.193020
C      3.161600   -2.771047   -0.368038
O      3.378288   -4.002876   -0.515165
C      4.219065   -1.722838   -0.350422
C      3.438128   -0.404269   -0.145737
C      0.602361   -2.776517   -0.147161
O      0.478064   -4.023734   -0.266448
O     -0.475165   -2.014731    0.025385
C     -0.403660   -0.687573    0.157239
C     -1.563664    0.064607    0.335072
C     -1.514781    1.420488    0.469632
C     -0.313845    2.122226    0.438520
O     -2.774451    1.960861    0.631229
C     -3.763858    0.930274    0.621787
C     -2.987798   -0.388621    0.400332
C     -3.477650   -0.893289   -0.925263
C     -4.404966    0.133296   -1.406259
O     -4.868811   -1.125372   -0.974666
O     -4.661424    1.133892   -0.447697
O     -3.207142   -1.334041    1.417463
H      1.919681    3.821892    1.340669
H      1.764980    4.007461   -0.465054
H      3.379459    3.725031    0.286638
H      4.922891   -1.903196    0.490275
H      4.766658   -1.715155   -1.317247
H      3.753285    0.088025    0.799428
H      3.596360    0.275902   -1.010232
H     -0.330896    3.197398    0.549884
H     -4.319086    0.931826    1.584570
H     -2.868371   -1.409768   -1.696837
H     -4.572581    0.321754   -2.486812
H     -2.903989   -0.928732    2.272230
