48

C     -6.005759    0.021283   -0.295618
C     -5.267989   -0.840978    0.725441
C     -3.886302   -0.301762    0.992607
O     -3.761172    0.789171    1.529667
C     -2.655630   -1.082935    0.622605
C     -1.988341   -0.491522   -0.589598
O     -2.654519   -0.360498   -1.652136
C     -0.539302   -0.164819   -0.583543
C      0.381821   -1.157297   -0.178145
C      1.764542   -0.858929   -0.099536
C      2.230910    0.389761   -0.551991
C      1.318148    1.354975   -0.994746
C     -0.061269    1.100702   -1.012169
C     -0.981730    2.228552   -1.436822
C     -1.527627    2.962376   -0.251974
O     -0.739053    3.451678    0.605407
O     -2.907958    3.137929   -0.129850
C     -3.493850    3.894693    0.924942
C      3.686962    0.675451   -0.564138
O      4.103832    1.835902   -0.835278
C      4.653855   -0.410554   -0.281253
C      4.189007   -1.660664    0.186073
C      2.745566   -1.793929    0.509843
O      2.377149   -2.579876    1.422081
C      5.118545   -2.714717    0.384449
C      6.485175   -2.476587    0.203878
C      6.939236   -1.229580   -0.221264
C      6.030324   -0.205351   -0.477205
O      4.727472   -4.012804    0.724358
O     -0.099411   -2.444998    0.087151
H     -6.108297    1.064855    0.073165
H     -5.460807    0.027887   -1.263730
H     -7.021182   -0.401320   -0.462669
H     -5.214992   -1.881869    0.339141
H     -5.844117   -0.861084    1.673808
H     -1.963743   -1.084854    1.494109
H     -2.913191   -2.141633    0.401796
H      1.683039    2.321450   -1.322316
H     -1.810411    1.857306   -2.070942
H     -0.436873    2.957358   -2.074184
H     -3.126831    4.944529    0.893337
H     -3.233544    3.443881    1.907313
H     -4.596424    3.887964    0.808757
H      7.197804   -3.274446    0.370308
H      7.998545   -1.062636   -0.370820
H      6.403873    0.747629   -0.830364
H      3.770514   -4.338866    0.679914
H      0.494006   -3.260826    0.145577
