39

C      6.891327    0.451799   -0.147876
O      5.716876    1.151992    0.249506
C      4.410003    0.673752    0.071300
C      4.135929   -0.572194   -0.518901
C      2.817891   -1.016993   -0.682662
C      1.740384   -0.176156   -0.298022
C      2.028857    1.040846    0.351150
C      3.348921    1.465967    0.511858
O      0.991459    1.840595    0.837716
C     -0.304743    1.301444    1.077198
C     -0.776957    0.482902   -0.134147
C      0.312053   -0.449135   -0.626813
O      0.000897   -1.354141   -1.446580
C     -2.056448   -0.266658    0.208392
C     -3.311744    0.181967   -0.263579
C     -4.477790   -0.525671    0.093935
C     -4.402466   -1.653397    0.920001
C     -3.164636   -2.081559    1.398556
C     -2.001947   -1.393137    1.052618
O     -5.554092   -2.353274    1.273646
O     -3.369038    1.326591   -1.076805
C     -4.565663    1.882500   -1.612093
O      2.635341   -2.300968   -1.201123
H      6.959667   -0.516323    0.391811
H      7.781252    1.063267    0.106071
H      6.880004    0.278624   -1.244759
H      4.942574   -1.218236   -0.838509
H      3.551069    2.415804    0.991144
H     -0.258379    0.660320    1.984755
H     -1.014619    2.132811    1.274445
H     -0.957839    1.198906   -0.964056
H     -5.448379   -0.206617   -0.260174
H     -3.103364   -2.949254    2.043142
H     -1.053297   -1.739977    1.443537
H     -6.469439   -2.069033    0.944638
H     -4.311000    2.780324   -2.211544
H     -5.246992    2.186382   -0.789538
H     -5.067141    1.144714   -2.273393
H      1.771468   -2.818783   -1.128076
