21

C     -0.866926   -0.007756    0.718902
C      0.219821    1.073291    0.539047
C      1.258064    0.668008   -0.533482
O      0.621844    0.213461   -1.730167
C     -0.619786   -0.431587   -1.751465
O     -0.967795   -1.056928   -2.787320
C     -1.592199   -0.287340   -0.614769
O     -2.468210    0.767625   -0.915010
C      2.223538   -0.379552   -0.046130
O      3.191651   -0.048579    0.689884
O      2.044939   -1.716354   -0.392066
O      0.859917    1.335408    1.762409
O     -0.297384   -1.189267    1.222865
H     -1.610857    0.376535    1.456490
H     -0.274127    2.008151    0.182106
H      1.853420    1.570329   -0.793370
H     -2.171661   -1.236406   -0.525629
H     -3.266454    0.653053   -0.335542
H      2.684956   -2.428645   -0.061889
H      0.217637    1.848637    2.319192
H     -1.040388   -1.732083    1.595945
