37

C     -2.281759    3.509770    0.329122
C     -2.147682    2.051449   -0.034581
C     -3.285675    1.311092   -0.390141
C     -3.179123   -0.047595   -0.735197
C     -1.909106   -0.677543   -0.722844
C     -0.775721    0.029425   -0.230000
C     -0.905073    1.407062    0.080367
O      0.149224    2.104931    0.496308
C      1.351793    1.575573    0.662028
C      1.569395    0.217967    0.424996
C      0.484305   -0.573879    0.014924
O      0.642579   -1.821198   -0.074920
C      2.908840   -0.365489    0.668998
C      3.447498   -0.314777    1.966190
C      4.693730   -0.884027    2.238340
C      5.415570   -1.507113    1.219374
C      4.897793   -1.553527   -0.076916
C      3.654343   -0.978277   -0.366251
O      3.199255   -1.012794   -1.685928
O     -1.795698   -1.968020   -1.245516
O     -4.368853   -0.709477   -1.099169
C     -4.529310   -2.102031   -1.347690
O     -4.532267    1.944338   -0.402895
H     -3.093187    3.994872   -0.253139
H     -1.348042    4.067314    0.104977
H     -2.507351    3.601172    1.412101
H      2.164676    2.209785    0.992582
H      2.893875    0.153476    2.771114
H      5.097885   -0.846287    3.241708
H      6.379851   -1.949972    1.432793
H      5.470168   -2.028045   -0.863950
H      2.346668   -0.557409   -1.985606
H     -0.946239   -2.343111   -1.643536
H     -5.609517   -2.320574   -1.472780
H     -4.151675   -2.694134   -0.487403
H     -4.012076   -2.387428   -2.287296
H     -5.389092    1.464484   -0.650167
