26

C     -2.882500   -1.578476    1.348841
O     -2.397566   -0.419606    0.677658
C     -1.063364   -0.207033    0.295161
C     -0.697702    0.988877   -0.370158
C      0.637836    1.199064   -0.760556
C      1.643292    0.246465   -0.429956
C      3.030394    0.424865   -0.666136
O      3.497600    1.497100   -1.130122
C      3.923396   -0.597813   -0.344287
C      3.440533   -1.762957    0.241521
O      2.147701   -1.895267    0.503302
C      1.252579   -0.955713    0.210330
C     -0.078746   -1.172958    0.556575
O      0.897690    2.359313   -1.498396
O     -1.614503    2.008856   -0.694590
C     -3.008786    2.024516   -0.408509
H     -3.971706   -1.464725    1.524812
H     -2.717184   -2.480341    0.722422
H     -2.374983   -1.692576    2.329933
H      4.984851   -0.485269   -0.529451
H      4.123065   -2.562875    0.495751
H     -0.332524   -2.101259    1.050427
H      1.696425    2.490014   -2.100589
H     -3.441743    2.971515   -0.790582
H     -3.177393    1.985243    0.688177
H     -3.516662    1.181039   -0.921577
