48

C     -1.724507   -4.531599    0.867166
C     -1.929614   -3.036610    0.576905
C     -3.113723   -2.488707    1.390667
C     -0.621571   -2.217139    0.799963
C     -0.701764   -0.807810    0.226807
N     -1.529502   -0.561663   -0.819630
C     -1.665486    0.664638   -1.375006
C     -0.903308    1.731899   -0.876759
C     -0.866675    3.069376   -1.515839
C     -1.863170    3.666000   -2.172346
C     -3.196665    3.112595   -2.433392
C     -3.472951    1.823424   -2.613543
O     -2.558232    0.785250   -2.440413
C     -0.028237    1.468277    0.198307
O      0.663711    2.412427    0.674401
N      0.085968    0.202509    0.723028
C      1.107229   -0.085663    1.761180
C      0.602293   -1.134858    2.707344
O      0.971329   -1.137974    3.912306
N     -0.265695   -2.158000    2.222186
C      2.427756   -0.567727    1.122541
C      3.027170    0.468756    0.208444
C      3.787379    1.524722    0.738023
C      4.299267    2.515548   -0.105486
C      4.051186    2.462619   -1.479926
C      3.291433    1.418215   -2.013736
C      2.780287    0.423731   -1.174666
H     -0.859496   -4.921725    0.289803
H     -2.626063   -5.102807    0.558286
H     -1.551158   -4.719921    1.946495
H     -2.203351   -2.973850   -0.499535
H     -4.040685   -3.043092    1.130951
H     -2.934141   -2.596852    2.480969
H     -3.282970   -1.415791    1.162065
H      0.201552   -2.730821    0.258193
H      0.030849    3.661354   -1.376993
H     -1.703315    4.688832   -2.491843
H     -3.982999    3.825780   -2.648489
H     -4.465475    1.560399   -2.956432
H      1.313903    0.824080    2.368619
H     -0.546485   -2.917959    2.880292
H      2.259838   -1.511455    0.560006
H      3.160401   -0.804269    1.925873
H      3.974228    1.584442    1.803084
H      4.883374    3.327853    0.307253
H      4.444600    3.232746   -2.130687
H      3.093987    1.382034   -3.077245
H      2.179498   -0.371213   -1.599188
