50

C      0.979934    4.218314    1.203090
C      1.007659    3.310154   -0.031116
C      2.239876    2.385957   -0.042139
C      2.215117    1.486085   -1.253840
C      2.764644    0.259174   -1.339414
C      3.463630   -0.514457   -0.236400
C      2.504063   -1.241809    0.756391
C      1.243321   -1.841274    0.068646
C      0.391958   -2.721488    1.015433
C     -0.164473   -1.971822    2.200161
C     -1.129824   -1.044628    2.134503
C     -1.849692   -0.682919    0.896119
C     -1.680945    0.576892    0.254411
C     -2.456831    0.855660   -0.896865
C     -3.356018   -0.096300   -1.395213
C     -3.512519   -1.336188   -0.760185
C     -2.764820   -1.613696    0.382456
O     -4.401854   -2.315580   -1.227802
C     -5.218616   -2.175223   -2.385611
O     -2.347976    2.085235   -1.548046
C     -0.662719    1.568831    0.716231
O     -0.196473    1.511513    1.885134
O     -0.206904    2.559405   -0.167489
O      1.608198   -2.595317   -1.061371
O      2.111241   -0.371917    1.785525
O      4.371808    0.316833    0.439763
H      0.030402    4.793850    1.225562
H      1.072025    3.635548    2.142143
H      1.825646    4.937295    1.159029
H      1.077991    3.978157   -0.917753
H      3.164157    3.001406   -0.080142
H      2.263326    1.807592    0.894516
H      1.771068    1.888464   -2.160949
H      2.712030   -0.231637   -2.307836
H      4.045476   -1.311320   -0.756894
H      3.072931   -2.094258    1.200596
H      0.608920   -1.004730   -0.288394
H     -0.440686   -3.185587    0.445608
H      1.022612   -3.554159    1.395609
H      0.266857   -2.185277    3.170655
H     -1.411270   -0.530850    3.045404
H     -3.932554    0.143013   -2.278386
H     -2.902981   -2.567045    0.879547
H     -4.584171   -2.025064   -3.284636
H     -5.815321   -3.100199   -2.522549
H     -5.914501   -1.318975   -2.260896
H     -2.895137    2.304872   -2.372255
H      2.193338   -3.335623   -0.751270
H      2.830732   -0.378316    2.469686
H      4.987324   -0.278591    0.942397
