28

C     -2.352819   -1.678785    0.021536
C     -2.286260   -0.218039   -0.450149
C     -3.636305    0.468821   -0.205771
C     -1.157980    0.567098    0.256795
C      0.245651    0.086540   -0.145695
C      1.330897    0.993903    0.462154
C      2.776359    0.602080    0.081428
C      3.176380   -0.780333    0.616296
C      3.009638    0.710863   -1.402947
O      3.354762    1.813466   -1.903858
O      2.798402   -0.380479   -2.238422
H     -1.443356   -2.233196   -0.288233
H     -3.223501   -2.192402   -0.439413
H     -2.453028   -1.730848    1.126948
H     -2.099541   -0.211359   -1.547081
H     -3.873704    0.490681    0.879789
H     -4.446473   -0.072370   -0.739766
H     -3.613002    1.511250   -0.589245
H     -1.248952    1.642257   -0.015353
H     -1.276583    0.487700    1.360277
H      0.392519   -0.950093    0.218652
H      0.327653    0.094944   -1.253418
H      1.153904    2.042194    0.133776
H      1.236316    0.979526    1.570486
H      3.448518    1.337289    0.578297
H      2.989705   -0.836694    1.709851
H      2.610698   -1.592119    0.113337
H      4.260102   -0.951894    0.441359
