36

C      0.012011   -2.374926    0.879136
C      0.604469   -1.083422    0.406255
C     -0.018202    0.163155    0.325195
O      0.843590    1.080553   -0.075814
C      2.004677    0.492102   -0.236900
C      1.916164   -0.842708    0.055026
C      3.020482   -1.686543   -0.030220
C      4.245100   -1.126810   -0.435372
C      4.351362    0.258181   -0.738058
C      3.201289    1.078283   -0.640875
C      5.654931    0.819668   -1.168219
O      6.542300    0.054458   -1.631040
O      5.940320    2.180598   -1.063068
C     -1.459510    0.457507    0.610855
C     -2.307413    0.237199   -0.652352
C     -3.824445    0.463423   -0.454172
C     -4.444613   -0.546365    0.521407
C     -4.153698    1.902783   -0.036030
H      0.118067   -2.447775    1.981225
H     -1.063393   -2.428538    0.611310
H      0.530445   -3.233261    0.403945
H      2.944652   -2.740106    0.204671
H      5.112126   -1.771873   -0.503967
H      3.220017    2.130184   -0.889213
H      5.317224    2.835881   -0.609747
H     -1.539587    1.512838    0.945167
H     -1.805579   -0.194757    1.438718
H     -1.946634    0.922877   -1.450972
H     -2.149893   -0.799782   -1.023097
H     -4.303064    0.294274   -1.444544
H     -4.113628   -0.354850    1.563518
H     -4.163323   -1.582340    0.235748
H     -5.552355   -0.468204    0.490274
H     -3.670415    2.625275   -0.727631
H     -3.811627    2.107396    1.000258
H     -5.251845    2.065627   -0.077785
