40

C     -4.219592    2.832864    1.077930
O     -3.734428    1.863320    0.157473
C     -2.720282    0.956120    0.482672
O     -2.212242    0.961343    1.639105
C     -2.276416   -0.064634   -0.545777
C     -3.096093   -1.380448   -0.373071
C     -2.585046   -2.201989    0.811540
C     -1.142269   -2.634999    0.562313
C     -0.253078   -1.489602    0.162614
C     -0.762315   -0.296251   -0.396335
C      0.158369    0.720570   -0.737174
O     -0.273299    1.784007   -1.255243
C      1.544313    0.529038   -0.519265
C      2.549630    1.505069   -0.792800
C      3.900721    1.162427   -0.660668
C      4.285879   -0.103683   -0.208414
C      3.304279   -1.034517    0.140525
C      1.949739   -0.733221   -0.019806
O      1.054868   -1.656969    0.301514
C      5.741583   -0.431178   -0.017500
O      6.126264   -0.162274    1.302699
O      2.276772    2.824559   -1.165999
O     -4.462774   -1.107416   -0.189988
O     -2.550788    0.460686   -1.824962
H     -5.015245    3.432390    0.590168
H     -3.395267    3.510577    1.385638
H     -4.645123    2.328865    1.971455
H     -2.976156   -2.011847   -1.286208
H     -2.648964   -1.615848    1.753292
H     -3.216300   -3.108955    0.934620
H     -0.743435   -3.105917    1.486510
H     -1.118981   -3.397713   -0.245807
H      4.657395    1.905394   -0.883800
H      3.591744   -2.005778    0.525932
H      6.374285    0.143798   -0.731881
H      5.915775   -1.508009   -0.227839
H      6.217603    0.823793    1.376226
H      1.399871    3.297462   -1.007938
H     -4.818988   -0.822489   -1.071790
H     -2.182014   -0.168545   -2.499963
