36

C      5.492208   -0.474636    1.159625
C      4.026774   -0.175270    1.041400
C      3.489158    0.965699    1.651264
C      2.115181    1.238215    1.579101
C      1.256356    0.345597    0.894553
C      1.804925   -0.814836    0.296305
C      3.176796   -1.069205    0.379042
O      1.026644   -1.675139   -0.351139
C     -0.284915   -1.511067   -0.471416
C     -0.920721   -0.390712    0.093545
C     -0.134411    0.555133    0.773775
O     -0.679087    1.582907    1.262641
C     -2.408636   -0.181172   -0.132942
C     -3.155131   -1.533539   -0.286839
C     -2.407826   -2.486618   -1.185381
C     -1.072330   -2.510880   -1.211890
O     -3.301873   -2.141368    0.970247
C     -2.626603    0.698677   -1.334807
O     -2.184041    0.352432   -2.465315
O     -3.326355    1.899603   -1.185501
C     -3.567845    2.785282   -2.271816
O      1.615080    2.389096    2.189792
H      5.847735   -1.049652    0.278107
H      5.674104   -1.070747    2.078112
H      6.081240    0.465601    1.215163
H      4.140477    1.647560    2.184718
H      3.580145   -1.965894   -0.076511
H     -2.840073    0.340440    0.750209
H     -4.163853   -1.359670   -0.730670
H     -2.964258   -3.222587   -1.752227
H     -0.561462   -3.264644   -1.797578
H     -4.041708   -1.668763    1.434326
H     -2.603882    3.133989   -2.699254
H     -4.137847    3.663809   -1.906112
H     -4.162586    2.271242   -3.056380
H      2.218619    3.036108    2.683852
