35

C     -5.938166    1.510199    0.177807
N     -6.499652    0.321921   -0.168759
C     -5.437787   -0.499864   -0.194242
N     -5.455541   -1.821666   -0.483900
C     -4.273273   -2.503488   -0.455308
N     -3.106428   -1.857760   -0.140486
C     -3.071411   -0.522277    0.155222
C     -4.295221    0.160767    0.120460
N     -4.596147    1.446049    0.362435
C     -1.776973    0.120948    0.482393
O     -1.717288    1.363440    0.683780
N     -0.578937   -0.668351    0.570625
C      0.731893   -0.077888    0.836313
C      1.276570    0.605275   -0.425151
C      2.564978    1.406591   -0.165578
C      3.761071    0.572265    0.327516
C      4.209081   -0.487720   -0.686643
C      5.481977   -1.137724   -0.235183
O      5.440125   -2.199619    0.440248
O      6.713520   -0.554136   -0.517671
H     -6.509877    2.421073    0.297073
H     -4.257331   -3.560442   -0.682626
H     -3.969830    2.233583    0.635176
H     -0.639287   -1.709053    0.501684
H      1.427612   -0.886484    1.145964
H      0.654042    0.648457    1.674474
H      1.442626   -0.151192   -1.220746
H      0.513637    1.314703   -0.811502
H      2.350250    2.196090    0.587357
H      2.853289    1.926610   -1.105142
H      4.605491    1.273139    0.510497
H      3.522400    0.091918    1.300155
H      4.372816   -0.018195   -1.680564
H      3.426513   -1.268475   -0.795114
H      6.775257    0.311306   -1.040563
