46

C      7.275716   -1.104075    1.319773
C      5.886747   -0.859564    0.788090
C      5.701137   -0.312518   -0.493459
C      4.393864   -0.069115   -0.944535
C      3.313015   -0.358280   -0.103551
O      3.533286   -0.853764    1.111519
C      4.750118   -1.103607    1.582825
O      4.870117   -1.560146    2.750998
C      1.933276   -0.108943   -0.566604
C      0.868777   -0.350252    0.210883
C     -0.528726   -0.096646   -0.225348
C     -1.472375    0.050466    0.726656
C     -2.890133    0.398198    0.468962
C     -3.842066   -0.295988    1.121555
C     -5.295571   -0.057448    0.994303
C     -5.925066   -0.015271   -0.262644
C     -7.306934    0.179734   -0.351831
C     -8.071842    0.315207    0.809701
C     -7.457436    0.244882    2.062778
C     -6.075821    0.049400    2.156051
C     -3.216366    1.601376   -0.383336
C     -0.866222   -0.032514   -1.697252
O      6.825550   -0.023219   -1.284851
C      6.770447    0.532134   -2.594859
H      7.275669   -1.886422    2.107545
H      7.678519   -0.161915    1.746487
H      7.950428   -1.453866    0.510163
H      4.212018    0.342171   -1.928738
H      1.797508    0.301904   -1.559199
H      1.027975   -0.708883    1.221806
H     -1.196776   -0.104449    1.764631
H     -3.538267   -1.057942    1.831377
H     -5.355235   -0.157997   -1.171093
H     -7.786326    0.215320   -1.321577
H     -9.141566    0.464008    0.739005
H     -8.052123    0.338747    2.962235
H     -5.612776   -0.007229    3.133772
H     -3.526370    1.285758   -1.399840
H     -4.026819    2.203699    0.079125
H     -2.329821    2.263719   -0.475130
H     -0.784903    1.013712   -2.058345
H     -0.177930   -0.674370   -2.285494
H     -1.887082   -0.420921   -1.893968
H      7.803387    0.655191   -2.979816
H      6.280521    1.528323   -2.567060
H      6.216478   -0.148602   -3.275217
