34

C     -2.417382    3.248636    0.838737
C     -1.851924    1.854344    0.741769
C     -2.476728    0.787108    1.409559
C     -1.950957   -0.506364    1.262571
C     -0.828897   -0.703264    0.449873
O     -0.286660    0.329876   -0.187842
C     -0.743852    1.572142   -0.079605
O     -0.172538    2.490611   -0.725678
C     -0.281343   -2.066589    0.276081
C      0.936261   -2.352943   -0.209031
C      1.990409   -1.354003   -0.489538
C      2.548738   -1.351441   -1.716180
C      3.639097   -0.460866   -2.179885
O      4.207881    0.352098   -1.403987
C      4.089256   -0.542041   -3.603682
C      2.469552   -0.468579    0.633196
O     -3.608943    1.042615    2.201290
C     -4.337683    0.047774    2.913514
H     -1.658493    4.016834    0.579798
H     -3.278460    3.344544    0.144699
H     -2.759864    3.460537    1.873655
H     -2.401730   -1.351343    1.765906
H     -0.929513   -2.902061    0.517992
H      1.174312   -3.392928   -0.400272
H      2.159831   -2.047535   -2.452752
H      4.835810    0.250445   -3.824918
H      4.551768   -1.533576   -3.792160
H      3.218202   -0.408945   -4.279822
H      3.530010   -0.697429    0.868837
H      1.878750   -0.640952    1.557149
H      2.364785    0.600446    0.354651
H     -3.681119   -0.441789    3.663092
H     -4.746145   -0.705750    2.207271
H     -5.182432    0.530390    3.446832
