27

C     -3.197488    2.457666   -0.790672
C     -1.888364    1.739344   -0.585335
C     -1.867054    0.429789   -0.077063
C     -0.628488   -0.199127    0.130288
C      0.556006    0.498331   -0.163319
O      0.486257    1.749284   -0.608051
C     -0.660531    2.385179   -0.820695
O     -0.630731    3.574819   -1.234693
C      1.901683   -0.087684    0.026313
C      2.144012   -1.405614    0.095672
C      3.498570   -1.969854    0.273154
O      3.632766   -3.222509    0.289138
C      4.716341   -1.109553    0.433435
O     -3.083599   -0.210657    0.214312
C     -3.199360   -1.532708    0.730550
H     -3.525484    2.908588    0.169073
H     -3.103584    3.259224   -1.553162
H     -3.979622    1.755141   -1.148152
H     -0.591529   -1.196298    0.541137
H      2.727196    0.611128    0.061512
H      1.334197   -2.114560   -0.006702
H      5.618471   -1.737957    0.592644
H      4.593957   -0.441946    1.311951
H      4.869078   -0.499354   -0.481250
H     -4.273357   -1.779061    0.857572
H     -2.699969   -1.601462    1.720013
H     -2.749372   -2.260152    0.022331
