25

C     -1.098953   -2.897679   -0.495094
C     -0.449531   -1.554794   -0.302768
N     -1.155556   -0.508495    0.008287
N     -2.546947   -0.566415    0.181326
C     -3.251744    0.478996    0.492036
N     -2.638353    1.760596    0.676443
N     -4.663714    0.345310    0.652089
C      1.007110   -1.419524   -0.468436
N      1.583821   -0.271727   -0.306929
N      2.970091   -0.137279   -0.463411
C      3.578897    0.999385   -0.308482
N      2.856752    2.188446    0.034349
N      4.994047    1.061899   -0.483736
H     -1.843877   -2.839181   -1.316338
H     -1.610048   -3.204053    0.441758
H     -0.350096   -3.675052   -0.756027
H     -1.609483    1.900872    0.568713
H     -3.223129    2.588583    0.926068
H     -5.127381   -0.581393    0.521429
H     -5.249898    1.172346    0.901702
H      1.600437   -2.288922   -0.727786
H      1.821835    2.185732    0.171447
H      3.365326    3.092226    0.154273
H      5.503921    1.965025   -0.364109
H      5.536472    0.205098   -0.733716
