35

C      4.756677    0.583230   -0.309789
C      3.387476    0.896333   -0.820088
O      3.256716    1.563026   -1.882686
C      2.206149    0.424487   -0.075355
C      0.957642    0.672337   -0.483866
C     -0.241391    0.184670    0.289650
C     -0.790092   -1.252742    0.024858
C     -2.086937   -1.536710    0.834104
C     -3.096898   -0.391745    0.741542
C     -2.545775    0.875388    1.392034
C     -1.127538    1.226658    0.911793
O     -0.164280    0.509990    1.660576
C     -0.757326    2.713584    0.843626
C     -1.071863   -1.413318   -1.486929
C      0.269260   -2.297585    0.435151
H      4.887335   -0.517150   -0.241280
H      4.891114    1.031152    0.697073
H      5.531576    0.994063   -0.991503
H      2.365798   -0.141142    0.835170
H      0.777487    1.245219   -1.385177
H     -2.568351   -2.472393    0.473379
H     -1.840736   -1.699094    1.907779
H     -4.029645   -0.687877    1.268600
H     -3.367515   -0.188419   -0.315414
H     -3.235490    1.714152    1.154905
H     -2.542023    0.755100    2.497855
H      0.341139    2.874894    0.878199
H     -1.205834    3.252942    1.704374
H     -1.156025    3.146257   -0.097237
H     -0.129478   -1.355769   -2.073189
H     -1.742382   -0.610704   -1.857863
H     -1.543031   -2.396939   -1.700168
H      0.554569   -2.168842    1.501455
H     -0.126604   -3.327765    0.301798
H      1.186275   -2.205289   -0.184477
