47

C     -1.840288    2.109920   -1.214151
N     -1.356155    1.380014   -0.026399
C     -1.786274    2.023553    1.235483
C     -3.275512    1.787674    1.548348
C     -3.618887    0.295098    1.522444
C     -3.182231   -0.333613    0.196602
C     -1.674952   -0.069592   -0.034657
C     -1.005840   -0.784112   -1.219477
C     -1.695881   -1.192097   -2.385013
C     -1.004416   -1.817252   -3.425726
C      0.372657   -2.025546   -3.370398
C      1.092153   -1.644823   -2.205905
C      0.393389   -0.989735   -1.156281
O      1.055121   -0.557116   -0.085002
C      2.359166   -0.719024    0.100543
C      3.103059   -1.419882   -0.855190
C      2.470456   -1.898863   -2.001584
O      3.150514   -2.580073   -2.812122
C      2.973947   -0.168712    1.335791
C      4.342374    0.164916    1.401225
C      4.886320    0.696401    2.574866
C      4.075086    0.909132    3.691122
C      2.715629    0.596962    3.634863
C      2.165638    0.065408    2.464751
O      0.965141   -2.577106   -4.510606
O     -3.061939   -0.968945   -2.537325
H     -1.389773    1.690087   -2.136982
H     -2.944586    2.077035   -1.304479
H     -1.522209    3.173094   -1.163181
H     -1.585736    3.116842    1.201356
H     -1.173077    1.622090    2.072284
H     -3.504639    2.196003    2.556100
H     -3.910148    2.332229    0.817096
H     -3.112902   -0.219577    2.368921
H     -4.715161    0.165781    1.651086
H     -3.810500    0.109993   -0.599832
H     -3.372650   -1.428370    0.230700
H     -1.192968   -0.516185    0.866141
H     -1.542985   -2.114590   -4.317492
H      4.153773   -1.630810   -0.703589
H      4.991307    0.043155    0.545053
H      5.937502    0.950575    2.616131
H      4.498773    1.321932    4.597586
H      2.086242    0.767117    4.498873
H      1.108733   -0.171038    2.446588
H      1.946056   -2.515503   -4.737374
H     -3.563327   -1.252445   -3.371188
