37

C      6.232392    1.494964    0.695541
O      5.289124    1.577679   -0.367863
C      3.950492    1.169300   -0.272354
C      3.130977    1.307544   -1.397888
C      1.790628    0.913759   -1.354231
C      1.250383    0.358490   -0.184004
C      2.066292    0.238505    0.954429
C      3.406738    0.633363    0.910139
C     -0.178451   -0.029012   -0.151975
C     -0.610988   -1.236304    0.429843
C     -1.998446   -1.514995    0.440426
O     -2.408559   -2.615981    0.887892
C     -2.910655   -0.575904   -0.100190
C     -4.330019   -0.731930   -0.093363
C     -5.130029    0.186698   -0.783949
C     -4.569564    1.293590   -1.419282
C     -3.188946    1.491623   -1.375588
C     -2.362248    0.570409   -0.727548
O     -1.055309    0.790617   -0.717341
O     -5.396364    2.197381   -2.083051
O     -4.999133   -1.746210    0.597846
O      0.365759   -2.117940    0.936362
C      0.131381   -3.351250    1.607798
H      5.894044    2.111671    1.554850
H      6.361008    0.437839    1.010506
H      7.210368    1.882348    0.343620
H      3.535278    1.724235   -2.311750
H      1.177136    1.031568   -2.239265
H      1.663261   -0.139247    1.885568
H      4.008321    0.525516    1.802287
H     -6.205153    0.055382   -0.797574
H     -2.752858    2.358332   -1.857253
H     -5.020891    3.013598   -2.551832
H     -4.607388   -2.268827    1.367129
H     -0.494578   -3.185446    2.509833
H     -0.348672   -4.078533    0.920054
H      1.104667   -3.772832    1.932176
