16

C     -0.692596   -0.513133   -0.010955
C     -1.733280    0.233260   -0.394336
C     -3.108072   -0.298186   -0.451186
O     -3.351613   -1.493420   -0.135012
O     -4.156399    0.521985   -0.857618
C      0.667194    0.050681    0.033966
C      1.707063   -0.695304    0.417103
C      3.075355   -0.158626    0.471390
O      4.019575   -0.906301    0.840116
O      3.338693    1.163269    0.120766
H     -0.842507   -1.548938    0.272575
H     -1.575476    1.267784   -0.676257
H     -3.998400    1.487910   -1.119182
H      0.817170    1.086400   -0.249534
H      1.552259   -1.730561    0.699713
H      4.281036    1.533179    0.158061
