37

C     -5.921080    1.096809    0.484177
O     -5.275051   -0.083385    0.950582
C     -3.958864   -0.449050    0.629315
C     -3.455608   -1.636974    1.161140
C     -2.150242   -2.052965    0.887705
C     -1.325604   -1.275059    0.042420
C     -1.826129   -0.073767   -0.505325
C     -3.139223    0.334359   -0.200651
O     -1.001914    0.678902   -1.360398
C     -1.371407    1.912281   -1.968192
C      0.043633   -1.719762   -0.297100
O      0.215594   -2.866854   -0.793188
C      1.196014   -0.824303   -0.064846
C      2.446909   -1.165723   -0.404465
C      3.624992   -0.291874   -0.183605
C      3.515836    1.108460   -0.053637
C      4.658657    1.890977    0.140458
C      5.918575    1.291602    0.197889
C      6.040017   -0.091893    0.053957
C      4.901325   -0.879429   -0.141173
O     -1.697973   -3.229290    1.490435
H     -5.979020    1.087714   -0.624795
H     -6.951578    1.131540    0.893077
H     -5.370454    1.996434    0.831669
H     -4.082656   -2.238714    1.807581
H     -3.525408    1.252849   -0.616109
H     -0.522953    2.282630   -2.579150
H     -1.603452    2.667913   -1.188236
H     -2.248784    1.763324   -2.632338
H      1.001114    0.121990    0.420937
H      2.627066   -2.146140   -0.830382
H      2.559878    1.608292   -0.125405
H      4.567552    2.965080    0.238788
H      6.801268    1.899968    0.346994
H      7.017520   -0.555113    0.092308
H      5.016243   -1.951083   -0.250752
H     -0.744794   -3.559747    1.415617
