28

C     -4.374793   -0.024309    0.343966
C     -2.964067    0.477139    0.256310
C     -1.932063   -0.263679   -0.194284
C     -2.131847   -1.693197   -0.643104
C     -0.565737    0.324071   -0.181131
C      0.576736   -0.480170   -0.041707
C      1.846502    0.119076   -0.035575
C      1.939302    1.516426   -0.147050
C      0.751247    2.255816   -0.296267
O      0.787594    3.508091   -0.430212
O     -0.427153    1.642723   -0.300065
C      3.286556    2.191751   -0.177327
O      3.024580   -0.638346    0.079191
C      3.066210   -2.057081    0.193878
H     -4.772793   -0.227488   -0.672140
H     -4.416764   -0.947925    0.959056
H     -5.015405    0.746400    0.821594
H     -2.785582    1.486766    0.608437
H     -1.339537   -1.994376   -1.359918
H     -2.102643   -2.367727    0.238002
H     -3.097345   -1.824342   -1.173375
H      0.476856   -1.549679    0.076847
H      3.695887    2.152137   -1.208291
H      3.215744    3.252572    0.142456
H      3.994129    1.687398    0.514085
H      4.123974   -2.384106    0.260798
H      2.535400   -2.381579    1.113708
H      2.605013   -2.526362   -0.700739
