26

C     -3.069518   -0.444129    0.467312
C     -2.888266   -0.362979   -1.046328
C     -2.180694    0.904176   -1.456207
C     -0.858406    1.129425   -1.334287
C      0.139367    0.166613   -0.739641
C      0.688289    0.722407    0.581312
C      1.560063   -0.294729    1.339998
C      2.869441   -0.658386    0.621065
C      3.762649    0.532164    0.430373
O      4.229559    1.116938    1.394896
H     -3.607333    0.454113    0.839119
H     -3.667970   -1.344663    0.719678
H     -2.091242   -0.522192    0.982640
H     -3.896691   -0.365407   -1.513228
H     -2.353268   -1.258050   -1.427818
H     -2.784460    1.682051   -1.915246
H     -0.476182    2.089112   -1.671068
H     -0.293605   -0.840326   -0.576405
H      0.969595    0.054143   -1.467731
H     -0.163867    0.996889    1.240937
H      1.265932    1.652320    0.387619
H      0.973619   -1.223812    1.510532
H      1.802589    0.122361    2.341922
H      3.413169   -1.415865    1.225493
H      2.651798   -1.121808   -0.363650
H      4.005431    0.871380   -0.571288
