33

C      4.851618   -0.065466   -0.761834
C      4.221728   -0.882051    0.366139
C      3.238445   -0.053403    1.205501
C      2.030165    0.373776    0.415541
C      1.101664   -0.510034    0.019889
C     -0.126418   -0.083914   -0.741571
C     -1.411475   -0.275565    0.093514
C     -1.436789    0.698731    1.284492
C     -2.653430   -0.094578   -0.813135
C     -3.987713   -0.449238   -0.120806
C     -4.786994    0.792744    0.274025
H      4.075231    0.267585   -1.482628
H      5.375928    0.822805   -0.349649
H      5.589628   -0.692237   -1.305296
H      3.709138   -1.770924   -0.061089
H      5.032864   -1.249536    1.031180
H      2.908403   -0.651568    2.082513
H      3.756679    0.849123    1.595982
H      1.904862    1.430164    0.194489
H      1.211872   -1.560720    0.274397
H     -0.177358   -0.713670   -1.655851
H     -0.046209    0.974444   -1.076888
H     -1.417693   -1.316496    0.488899
H     -1.514113    1.748985    0.930349
H     -0.516954    0.596012    1.897017
H     -2.292553    0.473422    1.953037
H     -2.678228    0.940510   -1.221579
H     -2.544426   -0.773051   -1.688227
H     -4.612805   -1.043369   -0.822978
H     -3.819648   -1.084254    0.775856
H     -5.055248    1.378643   -0.630817
H     -4.206424    1.438919    0.963096
H     -5.723747    0.484212    0.784141
