20

C     -1.959499   -1.073178   -1.156573
C     -1.319774   -0.228561   -0.055327
C     -1.894720    1.190551   -0.078811
O      0.078352   -0.177360   -0.283544
C      0.791065   -0.245720    0.935117
C      2.270456   -0.048840    0.717850
O      3.018082   -0.158849    1.677400
C      2.871456    0.280882   -0.621661
H     -3.059084   -1.134236   -1.008877
H     -1.750479   -0.634308   -2.155926
H     -1.543852   -2.102776   -1.126866
H     -1.591560   -0.706039    0.917950
H     -1.453133    1.794281    0.741347
H     -1.666279    1.686228   -1.046716
H     -2.996148    1.163248    0.064286
H      0.444146    0.540469    1.643333
H      0.644444   -1.246798    1.399820
H      2.108429    0.399081   -1.416640
H      3.439868    1.231488   -0.545371
H      3.568232   -0.529562   -0.921705
