25

C     -3.641939    0.416630   -0.871381
C     -3.098914   -0.405701    0.293081
C     -2.512299    0.488707    1.355241
C     -1.243903    0.939709    1.360713
C     -0.191696    0.549477    0.354341
C      0.525996   -0.731486    0.787955
O      1.480672   -1.127450   -0.195265
C      2.717931   -0.498278   -0.366039
O      3.071318    0.442934    0.397645
O      3.561382   -0.932958   -1.390991
C      4.835888   -0.349612   -1.634132
H     -2.833040    1.009669   -1.346750
H     -4.077977   -0.262648   -1.633813
H     -4.436337    1.107110   -0.515492
H     -2.356335   -1.144227   -0.073309
H     -3.938877   -0.979419    0.739952
H     -3.172867    0.814904    2.153548
H     -0.942126    1.603216    2.166169
H      0.547713    1.375383    0.289253
H     -0.627268    0.421436   -0.658069
H     -0.212751   -1.551899    0.903303
H      1.026610   -0.585025    1.770578
H      5.484943   -0.467618   -0.740620
H      5.312905   -0.861372   -2.495002
H      4.720971    0.728517   -1.874990
