26

C     -1.951571    1.590001   -0.016747
C     -1.880470    0.240654    0.728381
C     -1.112116   -0.861815   -0.056572
C      0.364198   -0.531932   -0.440807
C      1.362504   -0.485056    0.754612
C      2.783998   -0.333820    0.279802
N      3.150993    0.715751   -0.387253
O      4.445091    0.876509   -0.834839
O      1.052938    0.543170    1.660469
O      0.806709   -1.460387   -1.402312
O     -1.186087   -2.096010    0.616763
O     -3.186196   -0.217903    0.974571
O     -2.460621    1.432470   -1.314376
H     -2.584231    2.303795    0.558768
H     -0.946103    2.052041   -0.077747
H     -1.375370    0.408734    1.704717
H     -1.658103   -0.999637   -1.015891
H      0.382781    0.456985   -0.942471
H      1.309946   -1.447992    1.304507
H      3.500442   -1.116422    0.500186
H      5.158273    0.177547   -0.658304
H      1.085599    1.403755    1.166449
H      0.856872   -2.349386   -0.962693
H     -0.925129   -1.945665    1.562226
H     -3.552218    0.328931    1.718547
H     -3.442130    1.315683   -1.223207
