17

C     -2.494896   -0.637981    0.135698
C     -1.714020    0.649934    0.382871
C     -0.232966    0.403829    0.364781
C      0.415135    0.129992   -0.774192
C      1.871557   -0.106141   -0.842806
O      2.391652   -0.348154   -1.964470
C      2.750679   -0.068147    0.371230
H     -3.583632   -0.429402    0.199299
H     -2.233400   -1.399520    0.901320
H     -2.271993   -1.042013   -0.874571
H     -2.000333    1.054157    1.377587
H     -1.982103    1.407867   -0.384928
H      0.303494    0.483830    1.301516
H     -0.146293    0.078715   -1.700079
H      3.804708   -0.285080    0.095505
H      2.708091    0.939321    0.835503
H      2.414320   -0.831206    1.104054
