24

C     -3.220075    0.115124    1.110324
C     -2.928722   -0.399799   -0.276383
C     -3.937669   -0.786869   -1.063966
C     -1.538638   -0.486329   -0.792700
C     -0.465006   -0.114316   -0.084220
C      0.892628   -0.216511   -0.664217
C      2.026438    0.062199    0.008842
C      2.004003    0.448732    1.470383
C      3.310616   -0.008026   -0.733791
C      4.398605    0.680016   -0.387405
H     -2.702096   -0.518397    1.860632
H     -4.306813    0.101629    1.342665
H     -2.862535    1.162138    1.202455
H     -4.965245   -0.738727   -0.725618
H     -3.755770   -1.159970   -2.064564
H     -1.390585   -0.872866   -1.795783
H     -0.591158    0.281872    0.912845
H      0.966589   -0.510023   -1.706576
H      1.663920    1.500174    1.576310
H      1.330306   -0.222928    2.042643
H      3.004588    0.340865    1.936200
H      3.360509   -0.608424   -1.635148
H      5.297691    0.598454   -0.984399
H      4.408417    1.351983    0.459838
