22

C      2.870235   -0.037209   -1.428366
C      1.563933   -0.392836   -0.788975
C      1.110234    0.289615    0.274402
C     -0.203794   -0.013737    0.960578
C     -0.287200   -1.464396    1.459768
C     -1.392204    0.394755    0.098040
C     -1.811254   -0.355161   -0.936046
C     -2.114199    1.687164    0.382987
H      3.693966   -0.141453   -0.690917
H      3.066425   -0.716854   -2.283875
H      2.837184    1.008406   -1.800940
H      0.996370   -1.218918   -1.202019
H      1.707878    1.108420    0.667776
H     -0.220135    0.612899    1.879080
H     -0.208416   -2.194349    0.628396
H      0.538181   -1.663850    2.176300
H     -1.251549   -1.627948    1.986522
H     -1.333826   -1.292519   -1.193812
H     -2.654658   -0.038771   -1.542948
H     -2.081266    2.341846   -0.513735
H     -3.173778    1.475945    0.640003
H     -1.652128    2.238952    1.227782
