34

C     -4.949763    0.527295   -2.388641
C     -3.536613    0.420122   -1.896077
C     -2.500056    1.057106   -2.585660
C     -1.184019    1.018996   -2.109670
C     -0.878581    0.266250   -0.936737
C     -1.946120   -0.331892   -0.224243
C     -3.257588   -0.241743   -0.697624
O     -1.723270   -1.000686    0.897276
C     -0.516918   -1.162349    1.420671
C      0.630105   -0.628907    0.784135
C      0.433886    0.042326   -0.452433
O      1.426238    0.381528   -1.148319
C      1.908569   -0.824643    1.395835
C      1.997952   -1.563247    2.601811
C      0.847339   -2.094044    3.184274
C     -0.399098   -1.886823    2.606175
O      3.212918   -1.769416    3.261641
C      3.138361   -0.231382    0.836667
O      4.066000   -0.981467    0.426234
O      3.264583    1.159603    0.772791
C      4.415271    1.799837    0.235685
O     -0.241896    1.774712   -2.813541
H     -5.423566    1.433526   -1.956943
H     -4.974069    0.598471   -3.497000
H     -5.537952   -0.366558   -2.089988
H     -2.719794    1.620203   -3.485106
H     -4.059294   -0.706591   -0.135743
H      0.919575   -2.657898    4.105898
H     -1.281856   -2.297443    3.080642
H      4.092080   -1.379934    2.947316
H      4.280557    2.899368    0.292964
H      5.315903    1.516042    0.820302
H      4.550131    1.508658   -0.827584
H      0.630985    2.100981   -2.425008
