38

C      5.460588    2.097972   -0.047901
O      5.587339    0.700252    0.193115
C      4.510943   -0.199412    0.258020
C      4.778530   -1.558517    0.499772
C      3.727082   -2.474736    0.579479
C      2.407084   -2.053298    0.414968
C      2.115485   -0.704338    0.157219
C      3.175474    0.220904    0.091959
C      0.701422   -0.282296   -0.006635
C      0.345639    0.824201   -0.789287
C     -0.998443    1.179534   -0.908491
O     -1.296551    2.124924   -1.684424
C     -1.985863    0.447928   -0.204463
C     -1.544373   -0.692119    0.510103
O     -0.252144   -0.993861    0.585263
C     -2.461077   -1.527583    1.141088
C     -3.826675   -1.272441    1.064139
C     -4.303373   -0.136327    0.386860
C     -3.377608    0.763893   -0.207685
O     -3.856817    1.962799   -0.740863
O     -5.699725    0.049875    0.357358
C     -6.411850    1.055841   -0.354822
O     -4.704427   -2.166274    1.679498
O      6.085075   -2.017480    0.666957
H      6.470126    2.557434   -0.053798
H      4.859938    2.571499    0.757184
H      4.984511    2.273791   -1.035692
H      3.934830   -3.520251    0.769326
H      1.612910   -2.787238    0.476962
H      2.960837    1.268233   -0.061404
H      1.092180    1.381327   -1.341329
H     -2.109961   -2.400838    1.677669
H     -3.306014    2.803976   -0.832896
H     -6.206380    2.055253    0.082156
H     -7.499251    0.858466   -0.260664
H     -6.145546    1.027793   -1.432532
H     -5.709250   -2.040520    1.664016
H      6.885334   -1.398366    0.619821
