15

C      2.756633    0.555541    0.185651
N      1.589888    1.223632    0.377385
C      0.402447    0.594416    0.180722
C      0.391981   -0.746728   -0.220718
N     -0.788001   -1.390992   -0.421819
C     -1.970617   -0.740340   -0.235420
O     -3.058338   -1.348120   -0.424951
N     -1.981255    0.566138    0.155481
C     -0.819608    1.245073    0.366844
O     -0.851810    2.452636    0.728010
N      1.577286   -1.383581   -0.402977
N      2.733219   -0.747042   -0.204348
H      3.701206    1.057792    0.342599
H     -0.787490   -2.392738   -0.721595
H     -2.895540    1.054312    0.295136
