31

C     -3.332627   -1.516261   -0.498847
C     -3.089181   -0.044094   -0.876261
C     -1.949295    0.638114   -0.071657
C     -2.154734    0.524816    1.420247
O     -1.732179   -0.484966    2.044268
O     -2.835935    1.518409    2.117791
N     -0.635869    0.100122   -0.449764
C      0.590373    0.734034   -0.055723
O      0.566044    1.779633    0.650368
C      1.908555    0.113522   -0.428528
C      2.360797   -0.891381    0.620177
C      3.864777   -0.817699    0.556844
C      4.151526    0.608224    0.116961
N      2.952544    1.137921   -0.538750
O     -4.282130    0.693353   -0.772319
H     -3.710396   -1.604238    0.541380
H     -4.093450   -1.951798   -1.180607
H     -2.401462   -2.111430   -0.594953
H     -2.793398   -0.026905   -1.948179
H     -1.961618    1.716834   -0.344339
H     -3.198330    2.338110    1.645841
H     -0.575360   -0.746565   -1.059050
H      1.801243   -0.414859   -1.405002
H      2.023087   -0.590338    1.638027
H      1.991606   -1.915560    0.394093
H      4.243491   -1.531068   -0.208404
H      4.328260   -1.046365    1.541150
H      5.031584    0.637780   -0.564325
H      4.374927    1.235035    1.006993
H      3.162264    1.299728   -1.552397
H     -4.605114    0.617894    0.163142
