40

C     -1.717498   -0.033849   -0.989283
C     -0.199466    0.130028   -1.168460
C      0.610136   -0.828049   -0.281243
C      2.109943   -0.722540   -0.584707
C      2.918264   -1.677071    0.310771
C      4.448400   -1.615387    0.090155
C      5.095776   -0.269061    0.489021
C      4.929632    0.022318    1.952512
O      5.686071   -0.533861    2.791524
O      3.925422    0.876785    2.398944
O      4.776480   -1.962365   -1.233056
C     -2.220750    0.546165    0.344032
C     -3.739278    0.385186    0.521596
C     -4.545740    1.344879   -0.366311
C     -6.043107    1.248234   -0.061540
O     -6.766198    2.098928   -0.908915
H     -1.992319   -1.108697   -1.065695
H     -2.210755    0.499848   -1.828388
H      0.043582   -0.079366   -2.233487
H      0.094000    1.181995   -0.957868
H      0.272572   -1.872658   -0.460138
H      0.443845   -0.579459    0.788303
H      2.433327    0.325251   -0.414868
H      2.279081   -0.979805   -1.652343
H      2.692319   -1.464547    1.378114
H      2.583346   -2.718788    0.111275
H      4.895644   -2.397026    0.743340
H      6.183240   -0.316223    0.262775
H      4.682288    0.566285   -0.113009
H      3.291900    1.328542    1.750726
H      4.595304   -1.176268   -1.811088
H     -1.729451    0.010884    1.183262
H     -1.943956    1.620434    0.421567
H     -3.983158    0.595275    1.586332
H     -4.034680   -0.666164    0.310680
H     -4.387796    1.096393   -1.436903
H     -4.206966    2.389375   -0.190939
H     -6.389170    0.206225   -0.231195
H     -6.240149    1.507721    1.003953
H     -6.640136    3.020435   -0.561344
