46

C      2.340817   -2.028271   -1.232384
C      1.946743   -1.395459    0.099473
N      2.637607   -0.113571    0.300283
C      4.039510   -0.060870    0.582736
C      4.792456   -0.947135    1.359213
C      6.176668   -0.723925    1.468343
C      6.779512    0.363020    0.800807
C      6.002652    1.234146    0.018165
C      4.634898    0.988944   -0.069163
O      3.693404    1.698643   -0.786269
C      2.476948    1.064337   -0.527698
C      1.323646    1.574613   -0.980162
C     -0.010782    1.173642   -0.502837
C     -1.111366    1.591911   -1.132564
C     -2.471216    1.316026   -0.634335
N     -2.938215    0.113066   -0.185779
C     -4.227081    0.369245    0.113512
C     -5.218027   -0.497859    0.580834
C     -6.503831    0.034872    0.793473
C     -6.767991    1.398392    0.528396
C     -5.749994    2.240231    0.042630
C     -4.491100    1.680660   -0.155424
O     -3.407815    2.251199   -0.619279
C     -2.272117   -1.193258   -0.167567
C     -1.915059   -1.600679    1.259565
H      1.816910   -2.999804   -1.352504
H      3.436300   -2.207209   -1.264928
H      2.052895   -1.362377   -2.073124
H      2.199706   -2.092868    0.925063
H      0.853303   -1.271966    0.125149
H      4.330844   -1.780595    1.870657
H      6.783335   -1.391273    2.066528
H      7.845813    0.525322    0.889420
H      6.453409    2.067916   -0.503747
H      1.383801    2.418850   -1.657463
H     -0.103233    0.639357    0.428356
H     -1.019647    2.250459   -1.988147
H     -5.015641   -1.542807    0.772653
H     -7.296405   -0.604912    1.159071
H     -7.760812    1.796019    0.693732
H     -5.940618    3.282808   -0.175573
H     -1.359185   -1.174311   -0.796499
H     -2.945459   -1.959677   -0.608119
H     -1.295906   -0.821681    1.748481
H     -2.835267   -1.750256    1.861063
H     -1.344406   -2.552914    1.242386
