45

C     -6.426356   -1.628641    0.165980
C     -5.328225   -0.595467   -0.068949
C     -5.174449    0.333553    1.142567
C     -4.192304    1.490026    0.889423
C     -2.729466    1.030389    0.713140
C     -2.295217    1.031286   -0.763282
C     -0.921398    0.376418   -0.975867
C      0.225178    1.194150   -0.355196
C      1.612433    0.697836   -0.793655
C      1.979772   -0.657349   -0.164703
C      3.366926   -1.154650   -0.602770
C      4.514623   -0.352826    0.034475
C      5.884721   -0.992556   -0.247040
C      6.953570   -0.243924    0.490829
O      7.435453   -0.716096    1.555352
O      7.387752    0.992743    0.021917
O      6.170313   -0.949652   -1.621751
H     -6.188683   -2.248176    1.056967
H     -6.505549   -2.294653   -0.718995
H     -7.404587   -1.125020    0.319181
H     -5.583313    0.000496   -0.972123
H     -4.375115   -1.135401   -0.252881
H     -4.841208   -0.253127    2.026807
H     -6.165609    0.774953    1.387352
H     -4.533614    2.093955    0.019669
H     -4.240421    2.161907    1.774448
H     -2.075347    1.734746    1.270931
H     -2.578914    0.022395    1.158329
H     -2.276871    2.075038   -1.146808
H     -3.036365    0.471702   -1.371091
H     -0.752002    0.285701   -2.071083
H     -0.937844   -0.649192   -0.549689
H      0.125454    2.254730   -0.674454
H      0.159046    1.166890    0.753710
H      2.353895    1.460812   -0.476611
H      1.654498    0.627374   -1.902639
H      1.936995   -0.587244    0.944292
H      1.237661   -1.419534   -0.482520
H      3.443051   -1.115664   -1.711259
H      3.460036   -2.219524   -0.295693
H      4.513159    0.685769   -0.360614
H      4.357147   -0.308164    1.135226
H      5.882796   -2.048395    0.116815
H      8.098936    1.516076    0.518386
H      5.809440   -1.783694   -2.021484
