35

C     -3.523821   -0.803354    0.027523
C     -2.517956    0.293572    0.440948
C     -2.728961    0.583947    1.942272
C     -2.792039    1.592300   -0.351443
N     -1.123666   -0.182648    0.257224
C     -0.687835   -0.330950   -1.144057
C      0.540026   -1.248256   -1.239617
C      1.746024   -0.629848   -0.558836
C      2.585473    0.234999   -1.281361
C      3.682200    0.843164   -0.661925
C      3.942893    0.597471    0.692252
C      3.107244   -0.248245    1.427353
C      2.009319   -0.857729    0.804924
O      3.374004   -0.474398    2.775845
O      4.504642    1.691347   -1.400066
O      0.233398   -2.503874   -0.688312
H     -3.562599   -0.938339   -1.072320
H     -3.248859   -1.773472    0.494550
H     -4.552404   -0.535894    0.353420
H     -2.522292   -0.327228    2.544419
H     -2.044313    1.389076    2.286414
H     -3.772285    0.910312    2.144715
H     -2.767969    1.408839   -1.446277
H     -3.797215    1.996467   -0.103042
H     -2.031690    2.364122   -0.104958
H     -0.474635    0.503563    0.711083
H     -0.438828    0.663534   -1.578638
H     -1.483753   -0.781920   -1.769399
H      0.766986   -1.382774   -2.323681
H      2.386825    0.439400   -2.326482
H      4.790470    1.067165    1.175464
H      1.360073   -1.500449    1.386306
H      2.787411   -1.080422    3.337574
H      5.306389    2.148249   -0.981339
H      0.947740   -3.127725   -0.983038
