17

C     -0.292497    0.149903   -0.070572
C     -1.653147    0.279631    0.100079
N     -2.170672    0.946418   -0.946768
C     -1.103705    1.220287   -1.724629
O     -1.183723    1.859218   -2.806886
N      0.059779    0.754832   -1.223874
O     -2.393841   -0.192690    1.178378
N      0.611571   -0.451984    0.868424
C      1.941901   -0.882615    0.547266
O      2.330238   -0.940411   -0.649680
N      2.827484   -1.287721    1.590143
H     -3.168880    1.205260   -1.111496
H      1.011857    0.885596   -1.630154
H     -3.395394   -0.048616    1.219378
H      0.263566   -0.624790    1.838238
H      3.792472   -1.617079    1.365046
H      2.522990   -1.255239    2.588197
