16

C     -0.977115   -0.804380    0.355258
C     -2.217314   -0.546133   -0.032937
C     -2.269076    0.860457   -0.344894
O     -3.284654    1.482485   -0.751026
O     -1.034992    1.443907   -0.136759
C     -0.128430    0.445424    0.323375
C      1.049984    0.317149   -0.648083
C      2.067191   -0.663744   -0.144278
O      2.095588   -1.834186   -0.607663
O      2.962458   -0.302295    0.858089
H     -0.632931   -1.782602    0.664805
H     -3.026356   -1.261684   -0.096279
H      0.220740    0.701524    1.347416
H      0.685446    0.006453   -1.652289
H      1.537249    1.309301   -0.760441
H      2.952211    0.628325    1.258131
