25

C     -3.537007    0.013427    0.116122
C     -2.257823   -0.183039   -0.704247
C     -1.044723   -0.438533    0.211843
C      0.229794   -0.714360   -0.602341
C      1.414410   -1.157287    0.275917
C      1.925679   -0.071840    1.239476
C      2.382396    1.171221    0.523473
C      3.479886    1.181900   -0.238470
O     -2.038692    0.927657   -1.538486
H     -3.433069    0.881737    0.801485
H     -4.395557    0.195770   -0.564433
H     -3.751321   -0.896368    0.716498
H     -2.407880   -1.075205   -1.350772
H     -1.259322   -1.316579    0.860163
H     -0.889913    0.446773    0.865087
H      0.022803   -1.531083   -1.328073
H      0.508528    0.187025   -1.189381
H      1.117634   -2.050510    0.867560
H      2.248073   -1.474091   -0.387709
H      1.129593    0.194554    1.965418
H      2.773247   -0.481938    1.830462
H      1.816647    2.089430    0.650613
H      4.077237    0.285133   -0.371450
H      3.788285    2.097203   -0.732928
H     -1.898907    1.719001   -0.954663
