37

C      5.222301    0.782254    1.942643
C      4.870077    0.149653    0.596282
C      3.439978    0.477755    0.139182
C      2.374305   -0.276919    0.952607
C      0.942909    0.057948    0.503567
C      0.578587   -0.583327   -0.842049
C     -0.861654   -0.325375   -1.166847
O     -1.162025    0.643452   -1.915124
N     -1.886363   -1.153121   -0.591533
C     -3.326417   -0.908307   -0.735359
C     -3.746383    0.414270   -0.060734
C     -3.447146    0.410056    1.443049
O     -3.868887    1.614007    2.023710
C     -3.724651   -0.959124   -2.186231
O     -3.859507   -2.075446   -2.755111
O     -3.904833    0.212522   -2.917564
H      4.632032    0.322566    2.761711
H      5.034979    1.876846    1.919478
H      6.298465    0.613905    2.158064
H      5.579697    0.540179   -0.165222
H      5.011767   -0.951619    0.652624
H      3.357385    0.188243   -0.929254
H      3.265633    1.574064    0.206339
H      2.463340    0.008124    2.021973
H      2.545123   -1.373477    0.880595
H      0.812590    1.161240    0.445931
H      0.243400   -0.322011    1.280854
H      0.752170   -1.680347   -0.800037
H      1.211784   -0.165676   -1.652922
H     -1.590737   -1.971103   -0.011789
H     -3.873273   -1.729708   -0.219473
H     -3.227852    1.276992   -0.530416
H     -4.840114    0.558833   -0.203608
H     -3.950143   -0.452800    1.936664
H     -2.353486    0.309133    1.606759
H     -4.856184    1.556559    2.112028
H     -4.156866    0.179761   -3.898112
