28

C      2.578626   -0.892163    0.152147
C      1.352660   -1.689598    0.610795
N      0.203400   -0.778024    0.556324
C     -1.068572   -1.429014    0.182909
C     -2.150771   -0.382364   -0.216679
C     -1.776266    1.045337    0.257181
C     -0.369583    1.481042   -0.251914
C      0.566994    0.255687   -0.407414
C      2.057177    0.502066   -0.192785
O      2.276323    1.371137    0.889169
O     -0.483337    2.124263   -1.496160
O     -1.789436    1.091568    1.662539
O     -2.318616   -0.368496   -1.611860
H      3.355674   -0.857440    0.947283
H      3.018428   -1.363578   -0.754367
H      1.490476   -2.042253    1.655213
H      1.218854   -2.575720   -0.050183
H     -1.433963   -2.007061    1.059086
H     -0.921297   -2.151225   -0.652043
H     -3.119461   -0.662967    0.260539
H     -2.536784    1.763645   -0.131328
H      0.054204    2.198736    0.487434
H      0.450572   -0.149178   -1.444006
H      2.527532    0.901316   -1.121751
H      3.225008    1.658198    0.833258
H     -0.829042    3.038233   -1.319313
H     -2.741864    1.099902    1.943416
H     -2.836935   -1.182049   -1.847490
