45

C     -4.685602    1.479792   -1.651058
C     -5.538788    0.301979   -1.187826
C     -5.384806    0.221808    0.324018
C     -4.066287    0.920684    0.651448
C     -3.947038    2.004378   -0.423278
C     -2.880681   -0.074963    0.622520
C     -1.596288    0.530955    1.217784
C     -0.476107   -0.507370    1.391614
C      0.105136   -0.980977    0.047387
C      1.301590   -1.933706    0.229814
C      2.623815   -1.218967    0.566975
C      3.287565   -0.598071   -0.675120
C      4.549190    0.209225   -0.329929
C      5.722501   -0.680131    0.101320
C      6.955396    0.143860    0.298137
O      7.755740    0.322028   -0.658762
O      7.195390    0.748730    1.527796
H     -3.955726    1.140647   -2.418975
H     -5.321867    2.278486   -2.091599
H     -5.166564   -0.638357   -1.651413
H     -6.605289    0.443501   -1.468746
H     -5.420824   -0.830563    0.680941
H     -6.220244    0.779243    0.803590
H     -4.135724    1.381972    1.662259
H     -4.451506    2.928004   -0.062078
H     -2.897221    2.262824   -0.672976
H     -3.148742   -0.971192    1.224022
H     -2.699293   -0.407053   -0.422266
H     -1.226374    1.364521    0.584980
H     -1.828683    0.950499    2.220927
H      0.325460   -0.036262    1.997670
H     -0.858014   -1.379592    1.966216
H     -0.681594   -1.536755   -0.505333
H      0.390826   -0.106703   -0.573440
H      1.067306   -2.661274    1.037516
H      1.436076   -2.529151   -0.699700
H      3.311474   -1.977348    0.996814
H      2.462844   -0.441569    1.342586
H      2.574166    0.092822   -1.170332
H      3.541293   -1.395965   -1.406938
H      4.848455    0.780134   -1.236572
H      4.317580    0.946145    0.470605
H      5.485656   -1.191868    1.057353
H      5.916959   -1.455366   -0.671684
H      8.018840    1.320963    1.672892
