35

C      1.530358    1.256166   -0.225067
C      2.248620    2.028262    0.692566
C      3.451645    1.552041    1.223606
C      3.934749    0.295465    0.833680
C      3.217369   -0.479261   -0.082912
C      2.012908   -0.001422   -0.624230
C      1.219715   -0.854121   -1.583014
C      0.390822   -1.924391   -0.846890
C     -0.590268   -1.313974    0.129464
O     -0.529858   -1.643377    1.345402
N     -1.578875   -0.368977   -0.310356
C     -2.488853    0.293990    0.628991
C     -3.136104    1.529353   -0.016721
O     -2.155076    2.450532   -0.411269
C     -3.551328   -0.666885    1.078045
O     -4.191004   -1.348745    0.232167
O     -3.849236   -0.784781    2.431934
N     -0.301640   -2.776098   -1.816024
O      4.156911    2.332081    2.137136
H      0.597481    1.636853   -0.621137
H      1.868580    2.996331    0.993319
H      4.863000   -0.082769    1.242591
H      3.597702   -1.452212   -0.368672
H      1.922155   -1.359693   -2.281568
H      0.560050   -0.215963   -2.210249
H      1.101278   -2.567767   -0.279606
H     -1.642082   -0.141237   -1.328213
H     -1.910334    0.635847    1.516109
H     -3.717927    1.226189   -0.913941
H     -3.843029    2.010097    0.698197
H     -1.821452    2.883592    0.417544
H     -4.569143   -1.421616    2.751789
H     -0.815881   -3.525197   -1.297105
H     -1.012156   -2.213381   -2.338006
H      5.030902    2.015068    2.540278
