48

C     -1.957370   -3.504574    1.063493
C     -1.982940   -2.069012    0.503361
C     -3.383968   -1.463274    0.719276
C     -1.660824   -2.116425   -0.983066
C     -1.402803   -1.055813   -1.765856
C     -1.320179    0.337125   -1.288759
C     -0.140129    0.809482   -0.693584
C     -0.053388    2.140535   -0.239045
C     -1.137003    3.023271   -0.443725
C     -2.291033    2.552070   -1.098987
C     -2.382642    1.221235   -1.522669
O     -3.533654    0.771246   -2.170423
O     -1.043845    4.349447    0.011294
C     -2.066022    5.330713   -0.130777
C      1.187566    2.547923    0.468883
O      1.388409    3.747211    0.800127
C      2.197654    1.504294    0.850731
C      2.266392    0.423732   -0.237174
O      0.956022   -0.053180   -0.547797
C      3.143990   -0.723983    0.198998
C      4.467571   -0.818826   -0.265291
C      5.289957   -1.868453    0.156061
C      4.802649   -2.825336    1.050047
C      3.493369   -2.731726    1.528554
C      2.667664   -1.683867    1.110651
O     -1.011073   -1.302148    1.171140
H     -0.950858   -3.954114    0.920363
H     -2.183931   -3.505323    2.151436
H     -2.709466   -4.142317    0.549864
H     -4.140184   -1.995102    0.102183
H     -3.683370   -1.543953    1.786357
H     -3.396759   -0.388374    0.452177
H     -1.658926   -3.085167   -1.470805
H     -1.240011   -1.225563   -2.822941
H     -3.129563    3.210389   -1.279509
H     -4.319013    1.386428   -2.347895
H     -2.279850    5.506722   -1.206150
H     -1.719677    6.282192    0.322014
H     -2.987081    5.001907    0.395262
H      1.889043    1.055847    1.819928
H      3.199354    1.970716    0.977128
H      2.685511    0.884800   -1.160096
H      4.863393   -0.081416   -0.952541
H      6.306589   -1.938359   -0.208723
H      5.441047   -3.636433    1.375644
H      3.119000   -3.469288    2.226661
H      1.660102   -1.619344    1.499943
H     -1.259719   -1.255915    2.131749
