49

C     -4.242831    0.270266    1.840893
C     -3.501817   -1.044798    1.616584
C     -2.575764   -0.951604    0.431905
C     -3.025881   -0.872350   -0.837205
C     -1.942111   -0.775935   -1.893858
C     -1.102299    0.471845   -1.536504
C     -0.480421    0.314534   -0.082420
C     -1.056908   -1.016629    0.548708
N     -0.662529   -2.183216   -0.283592
C     -1.011380   -2.005955   -1.722718
C      0.637504   -2.841947   -0.020719
C      1.642486   -2.010741    0.786851
C      1.941830   -0.696275    0.132192
C      1.037243    0.319652   -0.207493
N      1.710175    1.385472   -0.710422
C      3.012130    1.063108   -0.684090
C      4.083453    1.858215   -1.090237
C      5.380562    1.331246   -0.961329
C      5.575494    0.037103   -0.433326
C      4.475499   -0.742118   -0.030318
C      3.196934   -0.194777   -0.173577
C     -0.838498    1.481181    0.827000
O     -0.611011    1.391466    2.066706
O     -1.355769    2.671947    0.301344
C     -1.681029    3.792598    1.114053
H     -4.857353    0.528757    0.951673
H     -4.914245    0.172675    2.719996
H     -3.520276    1.089615    2.039315
H     -2.924659   -1.287362    2.534854
H     -4.234080   -1.863892    1.450458
H     -4.082552   -0.855023   -1.085038
H     -2.365532   -0.711191   -2.919088
H     -1.764121    1.358270   -1.625887
H     -0.317844    0.604159   -2.314665
H     -0.770862   -1.154260    1.611545
H     -0.101453   -1.864260   -2.347948
H     -1.534706   -2.917827   -2.081260
H      0.434266   -3.771989    0.551262
H      1.125021   -3.167316   -0.966791
H      1.292176   -1.844211    1.825594
H      2.571689   -2.609582    0.877306
H      1.299144    2.285077   -1.047633
H      3.923606    2.851469   -1.489570
H      6.234669    1.922466   -1.266469
H      6.578326   -0.358276   -0.336327
H      4.630030   -1.732137    0.376193
H     -0.772046    4.156742    1.641625
H     -2.457455    3.510040    1.856443
H     -2.076807    4.605772    0.470112
