48

C      5.155897   -1.140358    0.724809
C      3.716746   -0.854952    1.185556
C      3.765045    0.074705    2.411752
C      2.850709   -0.228688    0.047541
C      1.328476   -0.520751    0.101107
C      0.600532   -0.919430    1.341851
O      1.054136   -1.867503    0.392177
C     -0.934993   -0.917811    1.349860
C     -1.638777   -0.530780    0.026733
C     -3.060810   -0.072700    0.487321
C     -3.755030    0.977623   -0.458995
C     -3.171719    0.973460   -1.891371
C     -1.701406    0.805524   -2.081929
C     -0.856808    0.547912   -0.796703
C      0.525355   -0.037222   -1.086810
C      1.159380    0.055496   -2.274670
C      2.566972   -0.370399   -2.396093
O      3.093043   -0.503063   -3.531526
O      3.318303   -0.630930   -1.243976
C     -0.571515    1.877390   -0.031657
O     -2.320943    2.071854   -2.139217
O     -3.765962    2.272719    0.089457
C     -2.729455    0.416339    1.868026
O     -3.503202    1.094112    2.594939
O     -1.491828   -0.031812    2.306371
C     -3.983500   -1.308745    0.629009
H      5.764631   -1.522783    1.572220
H      5.631568   -0.216664    0.330136
H      5.161628   -1.918832   -0.067515
H      3.286943   -1.829868    1.499528
H      2.750916    0.395943    2.721247
H      4.240232   -0.448669    3.268746
H      4.353524    0.989714    2.184013
H      2.962877    0.877875    0.095633
H      1.123628   -1.090243    2.301963
H     -1.248102   -1.949027    1.626897
H     -1.720230   -1.444082   -0.609477
H     -4.823679    0.681912   -0.582630
H     -3.834837    0.774931   -2.759959
H     -1.471256    0.349558   -3.065719
H      0.688273    0.475686   -3.149562
H      0.051084    1.716712    0.872233
H     -1.473795    2.399025    0.310090
H     -0.017708    2.578673   -0.692998
H     -4.401913    2.813904   -0.448527
H     -4.958321   -1.016029    1.076100
H     -4.176083   -1.760289   -0.368117
H     -3.538027   -2.089436    1.280933
