24

C     -1.693115   -1.349666    0.833100
C     -1.093993    0.043957    0.533262
C      0.203829   -0.074228   -0.331992
C      1.325655   -0.877326    0.371981
C      2.535115   -1.027835   -0.502402
O      2.547011   -1.891011   -1.420469
O      3.630750   -0.189455   -0.321822
C      0.716968    1.295708   -0.718715
O      0.666312    1.670727   -1.920920
O      1.235749    2.150290    0.250330
C     -2.129837    0.852576   -0.227480
O     -2.417983    2.025930    0.133998
O     -2.736074    0.315309   -1.360374
O     -0.777380    0.684708    1.749918
H     -1.765051   -1.960393   -0.092572
H     -2.712597   -1.249687    1.265319
H     -1.077645   -1.894133    1.578894
H     -0.057377   -0.620929   -1.267710
H      0.971584   -1.897950    0.623409
H      1.619641   -0.379961    1.321631
H      4.448763   -0.268987   -0.913945
H      1.578318    3.070500    0.001805
H     -3.416411    0.848702   -1.888244
H     -1.602231    0.723156    2.302997
