25

C      2.231853    1.743522    1.299375
C      3.032551    0.867213    0.383555
O      4.080043    1.329387   -0.142462
N      2.657019   -0.493013    0.115182
C      1.394080   -1.091049    0.545565
C      0.287715   -0.776855   -0.465120
C     -1.055345   -1.357764   -0.010773
C     -2.145662   -1.009923   -0.989248
O     -2.114011   -1.474766   -2.119140
C     -3.258227   -0.077096   -0.601909
C     -2.775829    1.337302   -0.633009
O     -2.315062    1.873168    0.409221
O     -2.787421    2.049444   -1.825574
H      1.189818    1.835284    0.932341
H      2.228773    1.311877    2.321716
H      2.675252    2.760832    1.348485
H      3.305685   -1.081007   -0.455741
H      1.522490   -2.193633    0.610026
H      1.118917   -0.728958    1.559033
H      0.190655    0.323467   -0.583548
H      0.566353   -1.208673   -1.451609
H     -0.982475   -2.463958    0.071199
H     -1.308314   -0.954792    0.994379
H     -3.627488   -0.331844    0.414955
H     -4.111369   -0.188163   -1.305786
