22

C     -2.502392    0.847089    0.858907
C     -1.598195   -0.049613   -0.008606
C     -0.125572    0.434347   -0.000006
C      0.759841   -0.483207   -0.825818
O      0.642771   -0.477004   -2.042603
C      1.817397   -1.361226   -0.208604
C      3.039244   -0.560153    0.109284
O      3.315138   -0.273080    1.304842
O      3.861880   -0.114385   -0.920544
O      0.365389    0.573679    1.312470
O     -2.081793   -0.067220   -1.328048
O     -2.479478    2.176070    0.409722
H     -3.544622    0.453517    0.849750
H     -2.159195    0.821421    1.914542
H     -1.627779   -1.083219    0.411004
H     -0.084111    1.440403   -0.471872
H      1.424834   -1.856898    0.704298
H      2.096710   -2.168958   -0.919284
H      4.688876    0.436349   -0.723255
H      0.156052   -0.259618    1.809704
H     -2.886240   -0.649355   -1.332480
H     -3.078756    2.221061   -0.380337
