23

C      0.285960    1.387751    0.416566
C     -0.817680    1.233662   -0.637562
C     -1.684564   -0.006881   -0.363272
C     -0.816911   -1.277070   -0.334486
C      0.337520   -1.151624    0.685218
C      1.178325    0.135784    0.511279
C      2.156101    0.070225   -0.641599
O      1.912013   -0.622792   -1.664089
O      3.328290    0.820280   -0.602171
O     -1.623302   -2.378669   -0.005806
O     -2.370334    0.133398    0.855862
H     -0.182553    1.575787    1.407706
H      0.903586    2.280646    0.175624
H     -1.457690    2.142393   -0.631584
H     -0.361472    1.154959   -1.648570
H     -2.422145   -0.113668   -1.192935
H     -0.401250   -1.430130   -1.355765
H     -0.092896   -1.154728    1.711291
H      0.998774   -2.042601    0.609827
H      1.789932    0.240302    1.434743
H      3.549442    1.408507    0.192333
H     -1.108483   -3.193301   -0.245621
H     -3.100662    0.787771    0.700316
