16

C     -1.343226   -1.250316    0.200355
C     -0.692070    0.091407   -0.048639
C      0.663416    0.220412   -0.031305
C      1.544821   -0.943463    0.362065
C      1.342039    1.477721   -0.431304
O      2.404490    1.834068    0.143614
O      0.850889    2.246963   -1.480230
C     -1.592692    1.249908   -0.267980
O     -2.674192    1.100832   -0.896032
O     -1.286890    2.497643    0.263855
H     -1.070637   -1.959077   -0.609545
H     -1.019679   -1.661332    1.179514
H     -2.450470   -1.171136    0.227599
H      2.622304   -0.698777    0.251784
H      1.362263   -1.214387    1.423129
H      1.339634   -1.820467   -0.286881
