16

C      1.876076    0.923827   -0.066426
C      2.054958   -0.442530    0.140860
C      0.947694   -1.287804    0.220508
C     -0.354618   -0.776674    0.096026
C     -0.541684    0.620706   -0.077586
C      0.588803    1.452848   -0.175718
C     -1.880681    1.251799   -0.119515
O     -2.842207    0.773125    0.537537
O     -2.074494    2.425699   -0.838459
N     -1.454107   -1.697656    0.090720
H      2.736575    1.577109   -0.132935
H      3.053952   -0.849652    0.229616
H      1.105434   -2.350434    0.357064
H      0.476710    2.521732   -0.310964
H     -2.388802   -1.442075   -0.293819
H     -1.303608   -2.700021    0.343090
