12

C     -0.661960   -0.866676    0.791954
C      0.215227    0.260514    0.239653
C     -0.600207    1.234455   -0.562237
O     -1.279711    0.843578   -1.548980
O     -0.596686    2.582342   -0.225586
C      1.332127   -0.292524   -0.599203
O      2.526729    0.008553   -0.338141
O      1.056698   -1.123726   -1.679164
H     -1.463668   -0.444135    1.434928
H     -1.132777   -1.446381   -0.031308
H     -0.048943   -1.557391    1.409865
H      0.653169    0.801391    1.108218
