27

C      3.971559    0.590294    0.056026
C      2.618263   -0.028112    0.403648
C      1.611975    1.067369    0.792316
C      0.250320    0.489538    1.018715
O     -0.171522    0.319512    2.195203
O     -0.526665    0.115083   -0.083018
C     -1.791863   -0.539044    0.029124
C     -1.584613   -2.012342    0.393267
C     -2.543562   -0.421087   -1.303337
C     -2.823777    1.012188   -1.633182
O     -2.031873    1.657801   -2.370802
O     -3.938483    1.642675   -1.089548
O      2.792330   -0.927554    1.468785
H      4.688478   -0.209696   -0.226432
H      4.381518    1.144805    0.927405
H      3.868297    1.287447   -0.802874
H      2.250699   -0.566116   -0.502825
H      1.957065    1.591260    1.711051
H      1.540540    1.818757   -0.023801
H     -2.400661   -0.053087    0.825107
H     -2.563585   -2.531741    0.470150
H     -1.070155   -2.096903    1.373149
H     -0.964099   -2.517354   -0.377711
H     -1.944207   -0.881124   -2.119784
H     -3.510995   -0.965104   -1.239792
H     -4.133611    2.616312   -1.289793
H      2.068626   -1.603776    1.398954
