36

C      3.457232    0.023901    1.400748
C      3.175528    0.657656    0.038221
C      2.481418   -0.308537   -0.951083
C      2.316655    0.365309   -2.321614
C      1.139166   -0.897048   -0.441857
C      0.056501    0.154479   -0.120473
C     -1.229120   -0.473756    0.483331
C     -1.946498   -1.421064   -0.511114
O     -2.119508   -0.809422   -1.760665
C     -2.163717    0.623789    1.090917
C     -2.874034    1.489881    0.038028
C     -3.191898    0.032544    2.069441
H      2.512538   -0.141148    1.959360
H      3.991216   -0.942206    1.277713
H      4.095070    0.706669    2.000737
H      2.577329    1.582984    0.176253
H      4.151096    0.967890   -0.396697
H      3.167860   -1.171384   -1.104948
H      1.732496    1.305618   -2.236879
H      3.313714    0.612477   -2.744792
H      1.803396   -0.317579   -3.031714
H      1.331046   -1.517808    0.459081
H      0.756052   -1.589436   -1.221115
H     -0.194005    0.722467   -1.039392
H      0.468934    0.872224    0.617638
H     -0.894706   -1.105660    1.337044
H     -1.344946   -2.348373   -0.634698
H     -2.931626   -1.737623   -0.109004
H     -2.574722   -1.478076   -2.335500
H     -1.529803    1.308215    1.698018
H     -3.619501    0.896030   -0.531144
H     -2.143915    1.935673   -0.667605
H     -3.410128    2.324784    0.537881
H     -3.713306    0.851994    2.609117
H     -2.687699   -0.604933    2.826402
H     -3.958114   -0.570532    1.540365
