32

C      2.130328    1.796515    0.239199
C      2.500972    0.426526   -0.357835
C      1.769171   -0.761574    0.334352
C      0.225941   -0.699702    0.197249
C     -0.260448   -0.702170   -1.262336
C     -1.765952   -0.992489   -1.390526
C     -2.660627    0.123465   -0.810447
C     -3.208690   -0.231938    0.577878
C     -4.038656    0.890313    1.115744
O     -5.274224    0.935809    0.877501
O     -3.438735    1.913443    1.838901
N      2.129928   -0.832496    1.755814
N      3.952696    0.220214   -0.314233
H      2.743527    2.592778   -0.233596
H      2.311839    1.815194    1.334525
H      1.065138    2.035464    0.041278
H      2.208214    0.437877   -1.429755
H      2.108105   -1.701289   -0.160316
H     -0.162729    0.196849    0.723472
H     -0.200458   -1.592261    0.705896
H      0.289076   -1.486185   -1.827773
H     -0.043422    0.277165   -1.739755
H     -1.991155   -1.086074   -2.475620
H     -2.004158   -1.979492   -0.936130
H     -2.107256    1.087824   -0.766508
H     -3.524829    0.274571   -1.494967
H     -2.379463   -0.433389    1.286073
H     -3.831674   -1.150678    0.511439
H      3.134755   -1.109727    1.833417
H      1.599749   -1.616184    2.201972
H      4.321231    0.484745    0.628445
H      4.401804    0.866895   -1.003357
