12

C      1.198287    0.300010   -0.103357
C     -0.229825   -0.186151   -0.377407
C     -1.216969    0.915293   -0.119594
O     -1.851711    1.432962   -1.076104
O     -1.422725    1.384431    1.172541
N     -0.559753   -1.350890    0.445899
H      1.923952   -0.512018   -0.321623
H      1.314080    0.607046    0.958386
H      1.438005    1.166563   -0.756247
H     -0.295576   -0.482258   -1.448631
H      0.070618   -2.140378    0.174214
H     -0.368383   -1.134611    1.451923
