23

C      1.506228    1.158616   -0.009924
C      2.814859    0.992298    0.454014
C      3.416677   -0.269365    0.417276
C      2.708325   -1.366754   -0.082054
C      1.399560   -1.203975   -0.546927
C      0.791924    0.062714   -0.522350
C     -0.629106    0.236923   -0.994022
C     -1.621818    0.166331    0.179731
C     -3.017280    0.482101   -0.290256
O     -3.589479   -0.259346   -1.134425
O     -3.676949    1.601724    0.207058
N     -1.574574   -1.151867    0.818409
O      4.716902   -0.432969    0.878857
H      1.048748    2.139444    0.031182
H      3.359626    1.842501    0.844379
H      3.170519   -2.345401   -0.107135
H      0.859824   -2.064096   -0.923453
H     -0.877731   -0.540180   -1.750673
H     -0.724654    1.222792   -1.501154
H     -1.328261    0.932140    0.932403
H     -4.615069    1.830602   -0.099096
H     -1.907042   -1.880486    0.144784
H     -2.231228   -1.153747    1.632972
