12

C     -0.653960   -0.660268    0.443806
C      0.238331    0.356276   -0.281939
C      1.680795    0.000173   -0.085141
O      2.316371   -0.593657   -0.995764
O      2.312562    0.282628    1.120133
O      0.013179    1.646594    0.223057
O     -2.008721   -0.371644    0.226355
H     -0.455255   -0.619187    1.536560
H     -0.424303   -1.693554    0.094641
H      0.012252    0.330186   -1.374370
H     -0.815312    1.984758   -0.207203
H     -2.215939   -0.662305   -0.700133
