21

C     -1.678232    1.079721   -0.315947
C     -0.885972   -0.013553   -0.598200
N     -1.616371   -1.133600   -0.445587
C     -2.842111   -0.709433   -0.083417
N     -2.906836    0.633714    0.002473
C      0.571604    0.009682   -0.950384
C      1.454957   -0.366210    0.255946
C      2.884324   -0.515490   -0.191594
O      3.435034   -1.647916   -0.184320
O      3.599877    0.591434   -0.632697
N      1.362780    0.639435    1.323082
H     -1.381750    2.120441   -0.329465
H     -1.300898   -2.121140   -0.569986
H     -3.674544   -1.369728    0.122177
H     -3.735882    1.208726    0.270104
H      0.849007    1.017295   -1.331077
H      0.738829   -0.718130   -1.774388
H      1.108883   -1.346553    0.657946
H      0.395496    0.654206    1.719472
H      1.599398    1.591029    0.957904
H      2.022409    0.396068    2.097957
