21

C     -1.494692   -0.776527   -1.161565
C     -1.119127    0.447146   -0.312580
C     -2.259301    0.769587    0.663155
C      0.201030    0.240621    0.470058
C      1.452121    0.136301   -0.431656
C      2.697264    0.442935    0.360069
O      3.482503    1.350330   -0.021636
O      2.995799   -0.283516    1.506933
N      1.553199   -1.197792   -1.028008
H     -2.508627   -0.648801   -1.597520
H     -1.486119   -1.701119   -0.545373
H     -0.790673   -0.892021   -2.010588
H     -1.003393    1.321408   -0.990996
H     -2.019288    1.682405    1.249167
H     -3.201347    0.961892    0.106359
H     -2.423562   -0.075606    1.365961
H      0.332838    1.116978    1.144495
H      0.122800   -0.658595    1.121076
H      1.364420    0.885809   -1.250304
H      2.374967   -1.214848   -1.675449
H      1.729189   -1.906588   -0.278385
