22

C      3.214791   -0.366171   -0.676499
C      2.567100    0.622340   -1.422535
C      1.261278    1.002895   -1.097743
C      0.596504    0.400078   -0.016532
C      1.250791   -0.600454    0.722179
C      2.556602   -0.978060    0.393844
C     -0.821751    0.789104    0.314369
C     -1.831051    0.025480   -0.560438
C     -3.228013    0.526754   -0.305283
O     -3.893300    1.047713   -1.238890
O     -3.792727    0.418530    0.960206
N     -1.746487   -1.415121   -0.306774
H      4.225068   -0.660406   -0.929910
H      3.075895    1.091849   -2.254494
H      0.767519    1.764786   -1.688255
H      0.749698   -1.088346    1.549069
H      3.057288   -1.747247    0.967551
H     -1.028311    0.597214    1.390822
H     -0.944673    1.883191    0.152705
H     -1.577336    0.210027   -1.629159
H     -2.045885   -1.616478    0.675598
H     -2.413000   -1.907678   -0.945409
