9

C      0.352813   -0.741496    0.271805
C     -0.937993   -0.090110   -0.121552
O     -1.428458   -0.300183   -1.261876
O     -1.580609    0.777503    0.754715
N      1.499968    0.031530   -0.192651
H      0.404924   -1.776741   -0.128513
H     -1.195549    0.971466    1.671413
H      1.434204    0.144549   -1.230742
H      1.450700    0.983483    0.237400
