18

C     -1.665139   -0.273249    0.400447
C     -0.597268    0.755926   -0.001322
C     -0.809372    2.040031    0.748632
O     -1.079486    3.100353    0.125215
O     -0.713131    2.066790    2.135093
N      0.743727    0.238383    0.290480
C      1.647261   -0.215453   -0.727568
O      1.333474   -0.136863   -1.945753
N      2.912846   -0.764071   -0.362987
C     -1.561875   -1.513757   -0.432467
O     -0.926994   -2.513717   -0.005221
O     -2.129297   -1.549021   -1.699879
H     -1.559369   -0.536391    1.476307
H     -2.677534    0.163345    0.255575
H     -0.703294    0.970107   -1.088735
H      1.019995    0.103717    1.289844
H      3.190683   -0.838085    0.640586
H      3.574774   -1.098044   -1.098247
