12

C      0.017471   -0.913985   -0.679456
C      1.074975   -0.872677    0.144323
C      1.508841    0.303378    0.921223
O      2.303196    0.146162    1.884635
O      1.121095    1.589939    0.566314
C     -1.015669    0.130986   -0.795353
O     -1.490250    0.398927   -1.930480
N     -1.554539    0.775076    0.360872
H     -0.102695   -1.792202   -1.302173
H      1.698630   -1.756670    0.204229
H     -2.276851    1.521818    0.256778
H     -1.284205    0.469250    1.321853
