15

C     -0.496486    1.134086    0.291753
C     -0.041114   -0.197787   -0.324046
C      1.135979   -0.757670    0.438123
O      0.973061   -1.234711    1.592735
O      2.416013   -0.724737   -0.108651
N     -1.146843   -1.163135   -0.345505
O      0.537597    2.076737    0.213581
H     -0.789479    0.981404    1.355372
H     -1.381271    1.513389   -0.267128
H      0.271322   -0.002197   -1.374609
H      2.588288   -0.332285   -1.026350
H     -1.924608   -0.796482   -0.941245
H     -1.509602   -1.334376    0.621010
H     -0.819404   -2.068055   -0.756141
H      0.186548    2.905816    0.631102
