23

C      0.172698   -0.553961   -1.010986
C      1.679787   -0.253123   -0.986108
C      2.303727   -0.468832    0.398111
N      3.753636   -0.320752    0.321803
C     -0.648590    0.472562   -0.210213
C     -2.164782    0.336212   -0.454133
C     -2.875775    1.496392    0.186101
O     -3.347720    2.421232   -0.526401
O     -2.986205    1.572017    1.569565
N     -2.670922   -0.919653    0.105743
H     -0.160526   -0.537830   -2.071699
H     -0.002118   -1.577655   -0.615801
H      1.862848    0.790505   -1.323671
H      2.180517   -0.932625   -1.710221
H      1.894409    0.266647    1.125041
H      2.063225   -1.493670    0.757099
H      4.146541   -0.545033    1.264636
H      3.970378    0.686863    0.142119
H     -0.441727    0.352719    0.875489
H     -0.329352    1.495452   -0.511508
H     -2.364891    0.357973   -1.550502
H     -2.323283   -1.710299   -0.482941
H     -3.711878   -0.935141   -0.001757
