47

C     -6.143188    0.084559   -1.031473
C     -6.653075   -0.829869    0.080503
C     -6.861697   -0.069864    1.363145
C     -5.881226    0.311446    2.194401
C     -4.450353    0.014797    1.979353
C     -3.523924    0.473944    2.828374
C     -2.089739    0.140662    2.712519
C     -1.364269    0.169786    1.583378
C     -1.864307    0.681020    0.285057
C     -1.198918    0.560480   -0.872982
C      0.146250   -0.098205   -1.023763
C      1.273203    0.873007   -0.650507
C      2.640891    0.184601   -0.721507
C      3.772099    1.181563   -0.426799
C      5.143263    0.501741   -0.288824
C      5.647896   -0.093988   -1.614674
C      7.109122   -0.554676   -1.525696
C      7.269499   -1.721931   -0.600521
O      7.019707   -2.888319   -1.002980
O      7.664840   -1.517326    0.715428
H     -6.018789   -0.503635   -1.965069
H     -6.876946    0.898913   -1.218584
H     -5.162890    0.530720   -0.763681
H     -5.961339   -1.684297    0.236742
H     -7.628867   -1.255979   -0.238853
H     -7.881399    0.172171    1.637841
H     -6.164587    0.863493    3.083500
H     -4.145160   -0.604366    1.146167
H     -3.835909    1.009434    3.716971
H     -1.581747   -0.115588    3.634525
H     -0.330491   -0.143388    1.661518
H     -2.813763    1.199118    0.251967
H     -1.661860    0.955723   -1.770316
H      0.198250   -1.028076   -0.417416
H      0.269920   -0.393723   -2.087676
H      1.255517    1.735547   -1.352993
H      1.114489    1.261457    0.378606
H      2.670459   -0.642813    0.021572
H      2.777953   -0.244780   -1.737894
H      3.553457    1.703923    0.530780
H      3.813910    1.950730   -1.228581
H      5.085845   -0.289895    0.488763
H      5.869240    1.267586    0.063074
H      5.012162   -0.954329   -1.915512
H      5.577018    0.677641   -2.411969
H      7.455736   -0.850579   -2.540103
H      7.753718    0.284781   -1.185811
