13

C     -1.166801   -0.108660   -0.413626
C      0.127546   -0.353823    0.376021
C      0.992303    0.879887    0.407554
O      1.451805    1.367180   -0.659504
O      1.285077    1.490192    1.620641
N      0.857243   -1.485744   -0.199089
O     -1.963038    0.853111    0.226339
H     -1.743393   -1.056997   -0.463194
H     -0.940215    0.197588   -1.461509
H     -0.154019   -0.617490    1.419886
H      1.183961   -1.239369   -1.162400
H      1.707377   -1.667341    0.383333
H     -1.637847    1.741466   -0.074452
