24

C      1.082955   -0.898024   -0.919828
C      2.328626   -1.137158   -0.331700
C      2.878443   -0.203448    0.556965
C      2.176246    0.969065    0.853365
C      0.930630    1.210744    0.266259
C      0.374898    0.279427   -0.626957
C     -0.981073    0.528769   -1.244079
C     -2.137265   -0.091216   -0.432640
C     -2.247555    0.546093    0.926572
O     -1.632982    0.059579    1.914426
O     -2.994297    1.709700    1.081588
N     -1.974776   -1.542150   -0.311684
O      4.118310   -0.431325    1.149614
H      0.670448   -1.630153   -1.602831
H      2.864582   -2.048069   -0.566066
H      2.595435    1.692802    1.540750
H      0.397485    2.121210    0.510691
H     -0.998480    0.114459   -2.276048
H     -1.152089    1.623113   -1.349079
H     -3.084212    0.115328   -0.981435
H     -3.064919    2.165183    1.983625
H     -2.816642   -1.927776    0.175670
H     -1.985245   -1.955197   -1.272790
H      4.651478   -1.270956    0.955613
