19

C     -1.337221   -0.035929   -0.784461
C     -2.735901   -0.520626   -0.538918
O     -2.947864   -1.694723   -0.280115
C     -0.466676   -0.161052    0.487309
C      0.988569    0.337251    0.285631
C      1.793457   -0.582663   -0.646455
O      3.138676   -0.187796   -0.676541
O      1.002324    1.644174   -0.232377
O     -1.061849    0.515662    1.568315
H     -1.380253    1.024437   -1.113926
H     -0.904457   -0.636076   -1.611548
H     -3.568510    0.172273   -0.603484
H     -0.419828   -1.237356    0.765083
H      1.494765    0.316472    1.280710
H      1.394388   -0.521708   -1.680002
H      1.714970   -1.642584   -0.312000
H      3.551080   -0.516017    0.164913
H      0.941934    2.265471    0.539429
H     -1.197605    1.460789    1.296713
