19

C     -0.640651   -1.188460   -0.586019
C     -1.605214   -0.007017   -0.489287
C     -0.828336    1.309256   -0.370230
N      0.089525    1.295795    0.781681
C      1.056639    0.181232    0.725434
C      0.334432   -1.179098    0.594383
C      2.086793    0.413555   -0.354934
O      2.499340    1.580312   -0.589642
O      2.653411   -0.654936   -1.040704
H     -1.218017   -2.137946   -0.580923
H     -0.077705   -1.135545   -1.543381
H     -2.265226   -0.132703    0.396996
H     -2.246300    0.022068   -1.396482
H     -0.262505    1.501982   -1.307696
H     -1.551062    2.144512   -0.247736
H     -0.477437    1.203954    1.657873
H      1.616204    0.163253    1.686501
H     -0.233859   -1.375497    1.530292
H      1.069968   -2.004718    0.482138
