18

C      1.697597   -0.897042   -0.674141
C      1.051131   -0.147273    0.279238
N      1.694725    1.020494    0.448789
C      2.732567    0.939743   -0.409934
N      2.767454   -0.212470   -1.112689
C     -0.215071   -0.522361    0.994448
C     -1.482348   -0.136706    0.206596
C     -1.594947    1.357498    0.063188
O     -1.055105    1.952016   -0.907747
O     -2.255494    2.096700    1.036287
N     -1.498810   -0.783135   -1.108008
H      1.407638   -1.875965   -1.032449
H      3.465316    1.726674   -0.527558
H     -0.231994   -0.026914    1.989766
H     -0.216461   -1.618799    1.178235
H     -2.363688   -0.490773    0.788339
H     -2.410598   -0.562181   -1.571444
H     -1.491910   -1.819504   -0.965267
