15

C     -1.403884    1.583893    0.263279
C     -0.645669    0.440876    0.144667
N     -1.419078   -0.617159    0.448053
C     -2.624500   -0.095313    0.742866
N     -2.653880    1.250526    0.640712
C      0.775780    0.400875   -0.250139
C      1.471612   -0.737137   -0.351698
C      2.888480   -0.749356   -0.747518
O      3.501313   -1.845655   -0.829274
O      3.563487    0.432186   -1.033458
H     -1.070717    2.598245    0.086774
H     -1.164777   -1.628940    0.459819
H     -3.480586   -0.690772    1.031475
H      1.259826    1.346570   -0.463249
H      1.002593   -1.688839   -0.142309
