22

C      1.131944    0.815078   -0.733085
C      2.430443    1.156985   -0.342800
C      3.113543    0.368044    0.587917
C      2.496743   -0.763384    1.130790
C      1.198214   -1.107993    0.742977
C      0.508954   -0.325205   -0.198219
C     -0.903059   -0.680323   -0.591897
C     -1.928737   -0.172970    0.443880
C     -1.954067    1.329559    0.493532
O     -1.546851    1.935752    1.519430
O     -2.405640    2.059705   -0.599500
N     -3.271048   -0.670821    0.137321
O      4.403608    0.709393    0.974715
H      0.611738    1.439851   -1.448536
H      2.904253    2.035909   -0.761114
H      3.021999   -1.373381    1.854669
H      0.728709   -1.982398    1.176522
H     -1.138448   -0.266252   -1.597490
H     -0.983357   -1.786310   -0.676790
H     -1.640599   -0.558408    1.448528
H     -3.507417   -0.450123   -0.858127
H     -3.270924   -1.712707    0.231874
