21

C     -1.395785    1.706629   -0.005967
C     -1.135409    0.220165   -0.311140
C     -2.316544   -0.595910    0.158516
O     -2.686847   -0.556144    1.362275
O     -2.993980   -1.413109   -0.737929
C      0.207958   -0.312527    0.291388
C      1.414898    0.497502   -0.272930
C      2.750618   -0.051692    0.142798
O      3.325849   -0.923320   -0.560769
O      3.349243    0.386412    1.317534
C      0.351031   -1.782555   -0.076656
O      0.548111   -2.122082   -1.274253
O      0.215577   -2.768983    0.893733
O      0.155547   -0.164841    1.694305
H     -1.324093    1.909756    1.083679
H     -2.410992    1.997129   -0.353164
H     -0.673710    2.352335   -0.546611
H     -1.085129    0.124812   -1.419488
H      1.368912    0.525674   -1.384042
H      1.365140    1.546791    0.085956
H      0.969602   -0.576043    2.085932
