18

C     -1.640594    0.740057   -0.783419
C     -0.943984   -0.037926    0.341807
C      0.498811   -0.444414   -0.052129
C      1.353855    0.768344   -0.320916
O      1.624785    1.575682    0.608788
O      1.837240    1.002760   -1.604436
N      1.118157   -1.267757    0.995748
O     -1.691223   -1.192746    0.627401
H     -2.683726    0.979422   -0.486557
H     -1.666522    0.135290   -1.714990
H     -1.114953    1.697148   -0.984391
H     -0.898176    0.611575    1.248109
H      0.449811   -1.049164   -0.986476
H      2.408463    1.815160   -1.804002
H      2.106801   -1.491012    0.735455
H      1.110389   -0.765287    1.913615
H      0.601741   -2.171567    1.095059
H     -2.470875   -0.905565    1.171334
