22

C      3.099366    0.213704    0.682590
C      2.565001   -1.053541    0.434138
C      1.287825   -1.179111   -0.121244
C      0.538187   -0.033900   -0.438612
C      1.078935    1.236655   -0.177414
C      2.356370    1.357647    0.378384
C     -0.851551   -0.170737   -1.008484
C     -1.897137   -0.436319    0.095362
C     -2.020997    0.741199    1.022080
O     -1.643860    0.646269    2.219793
O     -2.531327    1.947900    0.558195
N     -3.206938   -0.735454   -0.486508
H      4.087532    0.309177    1.113701
H      3.139355   -1.938849    0.674569
H      0.881805   -2.166727   -0.302155
H      0.511048    2.131335   -0.400712
H      2.769199    2.338468    0.575922
H     -0.859712   -1.014750   -1.732661
H     -1.124590    0.742930   -1.581843
H     -1.573294   -1.323188    0.686541
H     -3.137063   -1.629280   -1.025635
H     -3.468157    0.016571   -1.166006
