15

C      1.909877   -0.253618   -0.877709
C      0.789972   -1.067220   -0.717098
C     -0.359517   -0.580343   -0.071525
C     -0.329854    0.740123    0.452378
N      0.780339    1.506260    0.260546
C      1.880499    1.049661   -0.390687
C     -1.419716    1.321757    1.262236
O     -2.186114    0.592125    1.944649
O     -1.553570    2.702492    1.341088
C     -1.565293   -1.438019   -0.038490
O     -1.450437   -2.687533    0.072919
O     -2.831081   -0.887656   -0.201102
H      2.787712   -0.625919   -1.389917
H      0.808974   -2.068703   -1.129815
H      2.738207    1.696592   -0.517474
