31

C     -3.530243    1.692753    0.462696
C     -2.618372    0.532513    0.694367
O     -2.309284    0.212180    1.873906
N     -2.070546   -0.179115   -0.425534
C     -1.145384   -1.311505   -0.283883
C      0.270261   -0.969003   -0.817056
C      0.973347    0.144934    0.007878
C      2.452999    0.322373   -0.422713
C      3.163075    1.412887    0.402416
O      4.513808    1.503466    0.037133
O      3.157145   -0.891546   -0.321584
O      0.287336    1.362766   -0.154546
O      0.249601   -0.668795   -2.193247
C     -1.698401   -2.519369   -0.996988
O     -2.262650   -2.394404   -2.116566
O     -1.544025   -3.792273   -0.454284
H     -4.313213    1.413384   -0.272909
H     -4.022797    1.997584    1.410476
H     -2.944570    2.548183    0.066534
H     -2.335873    0.140254   -1.384871
H     -1.044580   -1.582235    0.789612
H      0.874921   -1.894992   -0.696663
H      0.955336   -0.168436    1.080273
H      2.472293    0.639488   -1.488396
H      2.666427    2.398828    0.256420
H      3.106027    1.162185    1.483270
H      4.539868    1.963309   -0.842460
H      3.134374   -1.172239    0.630901
H      0.289664    1.824119    0.724605
H     -0.197731    0.207652   -2.312632
H     -1.068814   -3.934945    0.428804
