22

C     -2.917446    0.504671   -0.671119
C     -1.933601    1.177685   -1.400410
C     -0.606677    0.738737   -1.358584
C     -0.254664   -0.381014   -0.585394
C     -1.250076   -1.050439    0.146875
C     -2.575888   -0.608293    0.101847
C      1.181991   -0.843217   -0.520909
C      1.962974   -0.226065    0.657764
C      2.074765    1.267457    0.510244
O      3.016724    1.764981   -0.161100
O      1.114588    2.104648    1.066990
N      1.335661   -0.566358    1.936513
H     -3.943988    0.846079   -0.704144
H     -2.198816    2.040896   -1.997047
H      0.146367    1.272889   -1.924681
H     -0.999458   -1.913037    0.751642
H     -3.338481   -1.127999    0.667372
H      1.700477   -0.596806   -1.473939
H      1.209190   -1.951649   -0.433922
H      2.992279   -0.652675    0.642929
H      1.936865   -0.193320    2.707475
H      1.347214   -1.607173    2.041600
