19

C      0.029692   -1.224914    0.110352
C      1.123808   -0.365638   -0.081928
C      0.895388    1.014014   -0.221199
C     -0.408308    1.536262   -0.170016
C     -1.489783    0.661241    0.022998
C     -1.280947   -0.720440    0.164177
C     -2.430702   -1.631213    0.367138
O     -2.251383   -2.871767    0.494584
O     -3.726462   -1.130107    0.420095
C     -0.643292    2.990797   -0.317348
O      0.321782    3.781948   -0.490786
O     -1.933863    3.505320   -0.266383
C      2.499435   -0.910973   -0.136600
O      3.484922   -0.143478   -0.309055
O      2.718874   -2.279205    0.002129
H      0.197643   -2.289412    0.218518
H      1.734259    1.683045   -0.369796
H     -2.497087    1.056766    0.063465
H      3.656026   -2.662247   -0.033793
