29

C     -4.685069   -1.389342   -0.405355
C     -4.338664   -0.274354    0.244753
C     -2.911991    0.006912    0.629241
C     -2.057712    0.325704   -0.607527
C     -0.637794    0.789482   -0.244512
C      0.246209   -0.362306    0.264762
C      1.667470    0.099245    0.626303
C      2.534406    0.377216   -0.614296
C      3.970141    0.769165   -0.240419
C      4.734965   -0.390106    0.321351
O      4.938496   -0.475295    1.561028
O      5.198164   -1.391695   -0.522425
H     -5.725025   -1.570307   -0.656730
H     -3.939701   -2.127131   -0.686509
H     -5.111276    0.433784    0.529614
H     -2.899752    0.877914    1.319604
H     -2.504955   -0.871464    1.173182
H     -2.002370   -0.562370   -1.274546
H     -2.550616    1.143822   -1.178092
H     -0.184498    1.220926   -1.161209
H     -0.688599    1.597163    0.518195
H      0.294655   -1.171855   -0.496155
H     -0.208350   -0.790574    1.182611
H      2.142516   -0.708113    1.224457
H      1.618541    1.006811    1.267228
H      2.551631   -0.516643   -1.276249
H      2.095731    1.218072   -1.190944
H      3.958946    1.610970    0.486334
H      4.494502    1.124369   -1.153372
