26

C      2.685132   -1.789237   -0.474670
C      3.391099   -1.348999    0.665970
C      2.972339   -0.200730    1.362330
C      1.850040    0.478163    0.891612
C      1.166076    0.049513   -0.214858
C      1.555697   -1.084422   -0.927293
C      0.067611    0.982637   -0.406989
C      0.152146    1.889507    0.570615
N      1.262439    1.647778    1.445869
C     -0.999954    0.922939   -1.465671
C     -2.235609    0.103925   -1.044284
C     -2.931687    0.712921    0.147843
O     -3.828395    1.580693   -0.028082
O     -2.557865    0.360739    1.442122
N     -1.883225   -1.299356   -0.807671
H      3.014450   -2.674146   -1.003470
H      4.259034   -1.898140    1.007003
H      3.505732    0.144646    2.238254
H      1.007387   -1.415419   -1.799293
H     -0.540216    2.710428    0.704019
H     -1.316208    1.957323   -1.724765
H     -0.568747    0.479865   -2.388854
H     -2.946042    0.131288   -1.900994
H     -3.006836    0.782903    2.245943
H     -1.310034   -1.384174    0.062764
H     -2.764363   -1.840644   -0.648980
