15

C      0.866148   -0.555372    0.350014
C     -0.418479    0.278840    0.171611
C     -0.631009    0.645370   -1.275141
O     -0.858893   -0.247438   -2.134240
O     -0.563106    1.975264   -1.670906
N     -1.582192   -0.453319    0.685502
C      2.089829    0.230849   -0.011832
O      2.596669    1.031016    0.817815
O      2.645092    0.110640   -1.279502
H      0.817920   -1.473927   -0.274770
H      0.954598   -0.878060    1.410286
H     -0.311272    1.218656    0.760346
H     -1.694244   -1.366937    0.187627
H     -1.462756   -0.634525    1.708794
H     -2.448306    0.118942    0.554398
