18

C     -0.677322   -0.605730   -0.620526
C      0.482764    0.215246   -0.038186
C      1.767857   -0.615651    0.019403
C      2.890746    0.194333    0.585946
O      3.096503    0.210592    1.828072
O      3.680027    0.970976   -0.252795
C     -1.968447    0.216499   -0.733976
C     -2.526522    0.578596    0.611381
O     -2.924829   -0.290107    1.371007
H     -0.859326   -1.505352    0.008056
H     -0.397878   -0.955306   -1.638557
H      0.653607    1.113013   -0.672884
H      0.221157    0.553114    0.988727
H      2.045248   -0.953059   -1.002800
H      1.607739   -1.516855    0.651052
H     -2.729361   -0.374349   -1.287856
H     -1.773295    1.143841   -1.314854
H     -2.588667    1.620199    0.908987
