42

C      2.902791   -0.426342   -2.400279
C      2.111344   -0.757395   -1.126611
C      0.600547   -0.438357   -1.325308
C     -0.271139   -0.331432   -0.011917
C     -0.697526    1.143344    0.329896
C     -1.708972    1.707655   -0.679567
C     -2.914826    0.774731   -0.781100
C     -2.475413   -0.653818   -1.129692
N     -1.477455   -1.201500   -0.178195
C     -2.095527   -1.631941    1.091468
C     -1.088652   -2.447970    1.894354
C      0.188872   -1.685016    2.068942
C      0.588070   -0.769515    1.167840
C      1.851116    0.033264    1.356196
C      2.677715   -0.062277    0.098209
O      3.823695    0.364969    0.100808
C      1.468055    1.500514    1.647108
C      0.500956    2.101107    0.597467
O      1.205715    2.400987   -0.580433
H      2.457981   -0.950008   -3.273279
H      3.956207   -0.764045   -2.297874
H      2.891032    0.668069   -2.593273
H      2.207944   -1.851523   -0.948215
H      0.493087    0.474236   -1.942770
H      0.202508   -1.255566   -1.966223
H     -1.243088    1.111749    1.300635
H     -2.057710    2.706775   -0.338566
H     -1.255364    1.838068   -1.683669
H     -3.477678    0.776374    0.177042
H     -3.599620    1.149342   -1.572160
H     -3.371884   -1.310351   -1.173010
H     -2.051786   -0.657610   -2.156443
H     -2.975826   -2.281476    0.891439
H     -2.442314   -0.763964    1.691165
H     -0.868887   -3.397383    1.360353
H     -1.514692   -2.692571    2.890686
H      0.818074   -1.921641    2.921970
H      2.450801   -0.364724    2.205025
H      2.384165    2.127472    1.714150
H      0.977884    1.541889    2.645165
H      0.102047    3.047862    1.034767
H      0.727748    3.148018   -1.026102
