27

C     -2.525191   -0.363614   -1.770242
C     -3.306770    0.670412   -1.213704
C     -2.928341    1.272687   -0.000474
C     -1.768706    0.820329    0.631481
C     -1.015080   -0.183292    0.084195
C     -1.360939   -0.801804   -1.117183
C      0.098212   -0.382084    0.979680
C     -0.050686    0.496049    1.972319
N     -1.228860    1.320103    1.858180
C      1.253257   -1.330261    0.802132
C      2.452689   -0.685646    0.078884
C      2.087813   -0.293770   -1.327279
O      2.223434   -1.123749   -2.265756
O      1.554048    0.965420   -1.588727
N      2.944717    0.478001    0.819413
H     -2.822569   -0.820667   -2.705015
H     -4.201575    1.003040   -1.723464
H     -3.521216    2.068209    0.431660
H     -0.753073   -1.591615   -1.538068
H      0.647401    0.590921    2.794323
H     -1.878503    1.031231    2.625327
H      1.580917   -1.694338    1.800275
H      0.913009   -2.222660    0.233806
H      3.266672   -1.444897    0.028065
H      1.280012    1.228881   -2.527562
H      3.803082    0.834692    0.338841
H      3.256246    0.158422    1.765612
