21

C     -2.320004    0.690797    0.278988
C     -1.431723   -0.298093   -0.479448
C     -0.045386   -0.512118    0.192572
C      0.405452   -1.969723   -0.025053
C      1.026466    0.477735   -0.354017
C      2.366706    0.282145    0.312741
O      2.485951    0.413380    1.560016
O      3.481434   -0.038849   -0.451618
N      0.591485    1.866779   -0.192766
H     -2.454659    0.361940    1.331312
H     -3.319265    0.732179   -0.203738
H     -1.893733    1.712728    0.265598
H     -1.308620    0.045436   -1.529752
H     -1.993502   -1.257314   -0.522960
H     -0.145083   -0.364520    1.291688
H      1.360891   -2.174102    0.501759
H     -0.350139   -2.672859    0.386229
H      0.538749   -2.179252   -1.108219
H      1.152310    0.282547   -1.442941
H      1.300007    2.496389   -0.636107
H      0.552661    2.104775    0.825718
