24

C      3.449999   -0.466803    0.164405
C      2.897341   -0.322554   -1.111112
C      1.588885    0.148010   -1.259169
C      0.824728    0.482310   -0.128012
C      1.385297    0.327631    1.151080
C      2.694252   -0.142918    1.294492
C     -0.594987    0.966107   -0.280059
C     -1.617731   -0.159972   -0.021352
C     -3.008657    0.415038   -0.007543
O     -3.667517    0.447804    1.066259
O     -3.563940    0.927300   -1.176818
N     -1.519883   -1.218799   -1.035096
H      4.462618   -0.831952    0.277161
H      3.482099   -0.577856   -1.985379
H      1.170619    0.247246   -2.253159
H      0.807916    0.570008    2.034749
H      3.121978   -0.258541    2.281986
H     -0.766194    1.793654    0.443983
H     -0.749461    1.393615   -1.295698
H     -1.412394   -0.604508    0.979775
H     -4.496582    1.322559   -1.179301
H     -0.600073   -1.708921   -0.953713
H     -2.274014   -1.927781   -0.882099
H     -1.614300   -0.820675   -1.998135
