16

C     -0.252135    0.212235    0.245522
C     -0.989663   -0.948556   -0.431846
C     -2.315492   -1.178975    0.221656
O     -2.410257   -1.960575    1.204311
O     -3.438448   -0.492644   -0.222811
C      1.102732    0.495993   -0.430931
C      1.760334    1.700444    0.183676
O      1.917233    2.750661   -0.493234
O      2.185773    1.668337    1.506419
O      1.959207   -0.616697   -0.353953
H     -0.093832   -0.026349    1.321038
H     -0.884743    1.126190    0.184890
H     -1.151949   -0.716427   -1.506704
H     -0.382220   -1.877308   -0.365281
H      0.917715    0.708776   -1.507160
H      2.075746   -0.845104    0.605694
