20

C     -0.298435   -0.222516    0.271437
C      1.126732    0.109204   -0.186519
C      2.164549   -0.584396    0.700711
C      3.549939   -0.249373    0.246503
O      4.123089   -0.962688   -0.618458
O      4.190157    0.879495    0.741891
C     -1.337616    0.471896   -0.616796
C     -2.759289    0.143499   -0.163250
O     -3.676908    0.794385   -0.996798
H     -0.433233    0.110310    1.324396
H     -0.452466   -1.323371    0.226061
H      1.281100    1.210289   -0.141171
H      1.261890   -0.223820   -1.239640
H      2.020077   -1.686395    0.661917
H      2.039939   -0.254929    1.755057
H     -1.207521    0.140287   -1.670487
H     -1.188305    1.573222   -0.572719
H     -2.922818   -0.956516   -0.215783
H     -2.903512    0.483170    0.887160
H     -4.577369    0.548249   -0.659744
