17

C     -1.052322    1.111267   -0.123413
C     -1.768497   -0.238427   -0.308317
C     -1.103098   -1.294955    0.528611
N      0.182867   -1.361450    0.572814
C      1.003019   -0.454229   -0.205686
C      0.494046    0.995918   -0.044460
C      2.434427   -0.567839    0.224574
O      3.352878   -0.598441   -0.636298
O      2.759761   -0.594009    1.575654
H     -1.335164    1.785324   -0.960956
H     -1.425654    1.582408    0.812604
H     -2.840053   -0.147951   -0.029452
H     -1.709033   -0.541530   -1.375944
H     -1.699080   -1.965103    1.138994
H      0.925306   -0.740436   -1.279271
H      0.824558    1.395907    0.940389
H      0.956039    1.633545   -0.829840
