26

C     -2.467449   -0.832740    1.022560
C     -1.997699   -0.614172   -0.430608
C     -0.620666    0.100997   -0.602768
C      0.522968   -0.443402    0.309925
C      1.954989   -0.134494   -0.209410
C      2.251904    1.368191   -0.378083
O      3.614958    1.548825   -0.645799
O      2.232265   -0.855650   -1.386492
O      0.378902    0.057873    1.616346
O     -0.764927    1.496789   -0.488153
O     -2.005727   -1.835530   -1.128807
O     -2.678551    0.392871    1.665759
H     -3.426530   -1.397286    1.001575
H     -1.731284   -1.444972    1.587663
H     -2.761809    0.028570   -0.921087
H     -0.329856   -0.088124   -1.656604
H      0.436031   -1.553760    0.338952
H      2.660122   -0.512148    0.563894
H      1.986033    1.908310    0.557982
H      1.655201    1.789149   -1.216802
H      3.750815    2.527720   -0.737496
H      1.838868   -0.367263   -2.154645
H      0.865044   -0.560390    2.222583
H     -1.002129    1.711580    0.448519
H     -1.407004   -2.464756   -0.649829
H     -2.954468    0.173812    2.593518
