27

C      4.591438   -1.094554    0.432502
C      3.136548   -1.096854    0.771664
O      2.703434   -1.887518    1.653273
N      2.237883   -0.222706    0.074464
C      0.796668   -0.207239    0.343552
C      0.164129    1.080226   -0.229172
C     -1.296391    1.304681    0.215787
C     -2.313611    0.733232   -0.781805
C     -3.716733    1.006067   -0.318918
O     -4.316336    2.031483   -0.739633
C     -4.388308    0.124430    0.649247
O     -3.800225   -0.890596    1.107692
O     -5.681409    0.411673    1.068261
C      0.170736   -1.435820   -0.250879
O     -0.520403   -2.205159    0.467590
O      0.343124   -1.725853   -1.599072
H      4.736682   -1.540983   -0.573458
H      5.167217   -1.683850    1.178006
H      4.973392   -0.052146    0.429233
H      2.631916    0.404463   -0.664020
H      0.644758   -0.205483    1.446663
H      0.246961    1.094698   -1.338836
H      0.762433    1.941195    0.143769
H     -1.471253    2.400971    0.294839
H     -1.466131    0.872566    1.226529
H     -2.160675    1.202740   -1.778159
H     -2.175841   -0.359665   -0.904643
