16

C     -0.502226   -0.959645   -0.811560
C     -0.859299    0.505033   -0.487385
N      0.346009    1.330779   -0.371250
C      1.542998    0.809994    0.216841
O      2.503708    1.579141    0.484064
N      1.641210   -0.586385    0.500375
C      0.602486   -1.470399    0.071340
O      0.648700   -2.690720    0.379886
C     -1.670968    0.596957    0.775337
O     -2.923966    0.705051    0.712350
O     -1.053694    0.517240    2.018170
H     -1.403067   -1.604787   -0.712694
H     -0.156451   -1.021526   -1.865714
H     -1.473570    0.900514   -1.326805
H      0.288694    2.349102   -0.598939
H      2.469437   -0.960348    1.015984
