19

C      1.827070   -1.023432    0.514602
C      1.106806   -0.201544   -0.322715
N      1.837526    0.892934   -0.583928
C      2.991028    0.710421    0.085487
N      3.021002   -0.452746    0.771668
C     -0.295563   -0.425137   -0.804835
C     -1.312760    0.306677    0.085670
C     -2.698064    0.179821   -0.490969
O     -3.337544    1.209377   -0.832589
O     -3.280988   -1.072107   -0.649000
N     -1.273370   -0.220351    1.452335
H      1.502688   -1.972246    0.921101
H      1.568781    1.714493   -1.169687
H      3.805226    1.422960    0.081788
H     -0.512894   -1.515861   -0.822000
H     -0.373981   -0.047779   -1.847909
H     -1.037472    1.385670    0.116039
H     -1.593585   -1.216706    1.453465
H     -1.943907    0.325555    2.041477
