18

C      0.732105    0.609206   -1.104683
C     -0.343786   -0.410589   -0.655353
C     -0.928336   -0.158946    0.759978
C     -1.619404    1.175989    0.835570
O     -1.011364    2.189661    1.271285
O     -2.925233    1.304598    0.379505
O      0.071255   -0.249224    1.743613
C      0.151386   -1.827895   -0.809591
O     -0.037064   -2.443388   -1.892086
O      0.860747   -2.450623    0.211076
C      1.982516    0.585471   -0.275351
O      2.867761   -0.284940   -0.485507
O      2.168046    1.524020    0.732049
H      0.306957    1.635115   -1.088891
H      1.005732    0.403568   -2.162903
H     -1.193069   -0.295960   -1.367474
H     -1.697264   -0.944639    0.950515
H     -0.390985   -0.361421    2.615464
