11

C     -0.409195   -0.433697   -0.253580
C      0.951718   -0.252473    0.342827
O      1.173145   -0.611383    1.530491
O      1.963802    0.349243   -0.399868
C     -1.150768    0.869266   -0.213010
O     -0.901376    1.771908   -1.055715
O     -2.088456    1.102665    0.785023
O     -0.281648   -0.881318   -1.577391
H     -0.966343   -1.192728    0.343869
H      2.885093    0.491075   -0.003288
H     -1.175971   -1.212557   -1.854879
