24

C      1.848481   -0.124074    1.029279
C      1.625993    0.769200   -0.204410
C      0.363728    0.400775   -1.044815
C     -1.009122    0.609176   -0.319766
C     -1.694783   -0.723479    0.057945
C     -3.088607   -0.471065    0.563026
O     -4.067230   -0.528784   -0.227303
O     -3.300298   -0.124730    1.892251
O     -0.953976   -1.397523    1.039605
O     -0.889163    1.427498    0.817825
O      0.361321    1.190737   -2.210114
O      2.778256    0.749156   -1.011826
O      1.940869   -1.471781    0.655675
H      1.027144    0.016535    1.763158
H      2.793979    0.185736    1.528220
H      1.513895    1.813949    0.156513
H      0.450808   -0.671712   -1.343185
H     -1.704436    1.105216   -1.041270
H     -1.762535   -1.356065   -0.859040
H     -1.262703   -2.341418    1.036407
H     -0.836732    2.364755    0.494073
H      0.921826    0.727984   -2.886956
H      2.872074   -0.167620   -1.381793
H      2.071210   -1.982467    1.496503
