24

C     -1.574010    0.974341    0.528801
C     -1.598147   -0.561301    0.490470
C     -3.046661   -1.061225    0.429403
C     -0.795190   -1.113111   -0.705446
C      0.670428   -0.813387   -0.576707
O      1.387057   -1.536682    0.167116
N      1.241817    0.308886   -1.264276
C      2.634550    0.709906   -1.087013
C      2.818009    1.357689    0.251437
O      2.387095    2.524785    0.444858
O      3.431886    0.673428    1.296661
H     -1.976736    1.396847   -0.416771
H     -0.537490    1.343626    0.676078
H     -2.186925    1.346946    1.377132
H     -1.147758   -0.942892    1.434124
H     -3.544912   -0.706683   -0.498660
H     -3.618370   -0.691744    1.307467
H     -3.070852   -2.171768    0.447978
H     -1.186909   -0.691911   -1.657117
H     -0.919155   -2.217007   -0.759507
H      0.639685    0.874487   -1.904342
H      3.301571   -0.172074   -1.195069
H      2.911469    1.439076   -1.878711
H      3.779549   -0.270235    1.176051
