49

C      6.225351    3.328244   -1.250540
C      5.278846    2.171351   -1.260072
C      4.793986    1.672658   -0.120011
C      3.859330    0.530962   -0.104390
C      3.383303    0.060463    1.050416
C      2.312275   -0.952874    1.023351
C      1.457844   -1.032587    2.052486
C      0.179477   -1.748219    1.896163
O     -0.424506   -2.147043    2.927616
C     -0.447463   -1.910347    0.513735
C      0.610110   -1.720391   -0.566352
O      0.259260   -1.540428   -1.724458
C      2.087118   -1.822818   -0.205493
C      3.049131   -1.420387   -1.366393
O      3.432222   -0.048527   -1.303886
O      2.364251   -3.153930    0.161311
C     -1.059950   -3.313623    0.340924
O     -1.439625   -0.894641    0.305863
C     -2.623562   -0.717019    1.037664
O     -2.915921   -1.477411    1.999209
C     -3.553142    0.365752    0.654489
C     -4.036442    1.274915    1.628079
C     -4.946561    2.270570    1.261736
C     -5.362257    2.402567   -0.065267
C     -4.875600    1.526793   -1.035315
C     -3.984197    0.497410   -0.691349
C     -3.505769   -0.437851   -1.773303
O     -6.257663    3.405007   -0.432006
O     -3.613538    1.237324    2.959285
H      5.741960    4.209893   -0.778960
H      7.143179    3.062738   -0.684453
H      6.509265    3.589272   -2.291517
H      4.994381    1.744842   -2.214556
H      5.096493    2.117751    0.821956
H      3.672223    0.518283    1.990335
H      1.639612   -0.482225    2.968409
H      2.618816   -1.640049   -2.365412
H      3.979343   -2.025944   -1.291277
H      2.183667   -3.729158   -0.629043
H     -1.805495   -3.536121    1.130691
H     -1.568020   -3.391934   -0.644271
H     -0.269147   -4.092366    0.395036
H     -5.315869    2.958733    2.012023
H     -5.204922    1.645538   -2.060631
H     -3.546518   -1.490586   -1.422385
H     -2.463376   -0.180471   -2.054410
H     -4.140487   -0.366731   -2.682227
H     -6.629375    4.058366    0.247616
H     -2.882035    0.624249    3.294012
