39

C      4.010234    0.912209   -1.337959
C      3.726242   -0.424496   -1.045939
C      2.759303   -0.742546   -0.087430
C      2.062514    0.278220    0.582122
C      2.366581    1.620258    0.293673
C      3.332162    1.933459   -0.667465
C      1.010020   -0.064135    1.605359
C     -0.124625   -0.858793    0.986508
C     -0.242377   -2.219394    1.307385
C     -1.246330   -2.992946    0.727161
O     -1.307116   -4.222308    0.998652
C     -2.152150   -2.403792   -0.171376
C     -1.990681   -1.046611   -0.487935
N     -1.002458   -0.297451    0.087086
C     -0.907389    1.085139   -0.294737
C     -1.330405    2.094770    0.583185
C     -1.229193    3.438155    0.208806
C     -0.715250    3.778984   -1.046483
C     -0.308253    2.775709   -1.931560
C     -0.409374    1.431640   -1.560446
F     -0.614486    5.082107   -1.406579
C     -3.244809   -3.175758   -0.811726
O     -3.593002   -2.900028   -1.991439
N     -3.938677   -4.207680   -0.106731
H      4.757434    1.156581   -2.081831
H      4.255025   -1.214689   -1.563035
H      2.548861   -1.782550    0.128886
H      1.847822    2.423911    0.801270
H      3.553771    2.968498   -0.893229
H      1.495088   -0.637318    2.425236
H      0.601581    0.850828    2.082840
H      0.456336   -2.683961    1.993673
H     -2.676080   -0.581714   -1.189465
H     -1.731408    1.837404    1.555338
H     -1.549009    4.214072    0.892249
H      0.088203    3.038474   -2.903757
H     -0.085598    0.659599   -2.247004
H     -4.666120   -4.775511   -0.595276
H     -3.806387   -4.348337    0.918853
