34

C      3.174915   -1.401319    0.584532
C      2.451890   -0.287924   -0.184578
C      3.476708    0.719280   -0.727545
C      1.402336    0.386411    0.733176
C      0.508768    1.439302    0.042019
C     -0.285663    0.825613   -1.077103
O      0.193915    0.773125   -2.241308
N     -1.552460    0.224937   -0.793339
C     -2.440313    0.726467    0.242849
C     -3.126340   -0.516159    0.802873
C     -3.081273   -1.532573   -0.335981
C     -1.875775   -1.137363   -1.190062
O     -2.208594   -1.183033   -2.552307
C     -1.707118    1.522652    1.291034
O     -2.297009    1.834398    2.360216
N     -0.386883    2.024603    1.042055
H      3.721674   -0.983972    1.457531
H      2.443990   -2.155926    0.946101
H      3.900183   -1.919715   -0.078567
H      1.938013   -0.767421   -1.045173
H      2.993803    1.430285   -1.428622
H      4.273047    0.190952   -1.294154
H      3.947499    1.287484    0.103175
H      1.928056    0.871290    1.585722
H      0.742158   -0.399945    1.163964
H      1.138157    2.257279   -0.367739
H     -3.196878    1.387681   -0.233469
H     -4.171143   -0.299743    1.114990
H     -2.557045   -0.920691    1.669909
H     -2.979974   -2.568797    0.053794
H     -4.020644   -1.458012   -0.928057
H     -1.018760   -1.814066   -0.959507
H     -1.353835   -1.246997   -3.051950
H      0.024594    2.691895    1.733493
