24

C      1.630063   -1.246561   -0.303249
C      2.380386   -0.093893   -0.030070
N      1.740869    1.034096    0.399106
C      0.388099    1.079790    0.558986
O     -0.153060    2.152045    0.944491
C     -0.398119   -0.059834    0.298497
C      0.240680   -1.228607   -0.150156
O     -0.506162   -2.369161   -0.446681
C     -1.903593   -0.014866    0.440035
C     -2.555576    0.408603   -0.879781
C     -4.046872    0.477714   -0.744256
O     -4.697173   -0.534153   -0.535214
C      3.853999   -0.116242   -0.196174
O      4.472485   -1.213011   -0.153077
O      4.582896    1.051259   -0.417313
H      2.116604   -2.150542   -0.649067
H      2.291089    1.888572    0.639212
H     -0.067633   -3.222225   -0.773504
H     -2.192885    0.695763    1.245117
H     -2.286866   -1.012409    0.747451
H     -2.297066   -0.315150   -1.683108
H     -2.176242    1.410619   -1.176415
H     -4.556598    1.430244   -0.846294
H      4.140673    1.947950   -0.571985
