16

C     -1.857388   -0.177736   -0.228005
C     -0.504201    0.113448   -0.886750
C      0.651378   -0.490886   -0.124542
C      1.484896    0.450971    0.287715
C      0.960942    1.716111   -0.158047
O      1.481190    2.843768    0.045177
O     -0.219085    1.513955   -0.853278
O      2.655543    0.256368    1.015544
O      0.835006   -1.850563    0.106606
O     -1.916407    0.361004    1.066525
H     -2.657543    0.289899   -0.839543
H     -2.051109   -1.274709   -0.210530
H     -0.497177   -0.249073   -1.937123
H      2.955019   -0.671577    1.290392
H      0.172025   -2.529397   -0.246604
H     -1.493086   -0.301583    1.672462
