47

C      2.015188   -2.621727    0.575540
C      1.983699   -1.126010    0.305191
C      3.144255   -0.337580    0.528745
C      4.385811   -0.936232    0.848691
C      5.525708   -0.163939    1.042151
C      5.471446    1.212458    0.878540
C      4.270616    1.840389    0.532698
C      3.073943    1.079639    0.413527
C      1.821177    1.684819    0.144978
C      0.723838    0.896407   -0.266052
C      0.813405   -0.511237   -0.216365
C     -0.377205   -1.361026   -0.621350
C     -1.392460   -0.648980   -1.546362
C     -2.627263   -1.573937   -1.764102
C     -3.559074   -1.542466   -0.579311
O     -4.443539   -2.436644   -0.486395
C     -3.473556   -0.476990    0.455247
C     -2.615654    0.558625    0.311525
C     -1.800224    0.732120   -0.973993
C     -0.537644    1.539671   -0.737725
O     -0.567708    2.782220   -0.958732
O     -2.585466    1.398182   -1.936811
O     -2.517390    1.505792    1.336888
C     -4.316795   -0.597829    1.669011
O     -4.433546   -1.716307    2.237657
N     -5.029301    0.527093    2.188248
N     -3.366934   -1.258500   -2.991120
O      1.621927    3.057476    0.326230
O      4.296797    3.206754    0.253352
H      2.530364   -3.143341   -0.257980
H      1.008339   -3.061952    0.710430
H      2.535979   -2.833738    1.532187
H      4.504993   -2.007277    0.926072
H      6.466548   -0.640664    1.286437
H      6.378896    1.793135    0.987131
H     -0.884510   -1.705383    0.305722
H     -0.011325   -2.256029   -1.170841
H     -0.884261   -0.491132   -2.525299
H     -2.265875   -2.621022   -1.873176
H     -2.977380    2.209673   -1.517273
H     -1.950640    2.340448    1.264300
H     -5.588523    0.434185    3.065081
H     -5.062359    1.431247    1.667263
H     -2.700556   -1.156823   -3.790462
H     -3.899129   -0.366168   -2.887600
H      2.146411    3.610992    0.990234
H      5.148977    3.751608    0.317872
