44

C     -1.752472   -2.518446   -1.121278
C     -1.899151   -1.178382   -0.419933
C     -3.181356   -0.584652   -0.269705
C     -4.357698   -1.279176   -0.638402
C     -5.611506   -0.694860   -0.494365
C     -5.729688    0.586267    0.024880
C     -4.594453    1.299799    0.421626
C     -3.302070    0.719532    0.289962
C     -2.140313    1.405942    0.715007
C     -0.862518    0.826205    0.532625
C     -0.757150   -0.507726    0.088339
C      0.599403   -1.185595    0.113631
C      1.521569   -0.592276    1.194689
C      2.840047   -1.321368    1.173391
O      3.009986   -2.324739    1.916798
C      3.898596   -0.924916    0.224911
C      3.817229    0.253030   -0.436273
C      2.673234    1.172378   -0.189129
O      2.549977    2.210894   -0.896108
C      1.728681    0.929824    0.984834
C      0.391580    1.607639    0.749976
O      0.369468    2.866453    0.667570
O      2.280919    1.496745    2.151286
C      4.867668    0.679979   -1.385043
O      4.551181    1.012909   -2.558171
N      6.231648    0.771650   -0.970860
O      4.950206   -1.824461    0.020068
O     -2.278403    2.636308    1.367096
O     -4.764600    2.585342    0.938339
H     -2.384381   -2.554049   -2.032572
H     -2.039518   -3.338274   -0.430168
H     -0.726481   -2.700317   -1.496917
H     -4.333041   -2.290300   -1.018211
H     -6.499410   -1.242828   -0.783292
H     -6.713622    1.026622    0.126720
H      0.474811   -2.264465    0.352601
H      1.067034   -1.094002   -0.891281
H      1.043022   -0.752353    2.188498
H      3.182247    1.106280    2.297244
H      6.503550    0.575274    0.018091
H      6.968669    1.068960   -1.648006
H      5.658476   -1.707630   -0.692738
H     -1.570440    3.035069    1.968787
H     -5.680929    3.007712    1.034076
