27

C     -4.955981   -0.106815    0.273935
C     -4.655091    1.176037   -0.188320
C     -3.341623    1.649916   -0.132134
C     -2.316004    0.841277    0.374153
C     -2.626362   -0.441976    0.872368
C     -3.946431   -0.913004    0.805871
O     -1.636185   -1.230035    1.457125
O     -1.013253    1.357121    0.405568
C      0.128627    0.647581    0.015383
O      0.018944   -0.435412   -0.621792
C      1.451883    1.196679    0.373491
C      2.633044    0.798960   -0.123380
C      2.792518   -0.144440   -1.251477
C      3.888492   -0.890063   -1.470848
C      5.023004   -1.013807   -0.530069
O      4.902431   -0.721686    0.689999
O      6.233419   -1.519756   -0.993606
O      3.959945   -1.609322   -2.658902
H     -5.973593   -0.472877    0.229350
H     -5.439597    1.803313   -0.591537
H     -3.115944    2.644132   -0.496492
H     -4.193004   -1.898743    1.179422
H     -1.839963   -2.150504    1.828627
H      1.464046    1.973945    1.127874
H      3.520592    1.268174    0.281542
H      2.013454   -0.173822   -2.002604
H      7.022632   -1.634873   -0.368892
