41

C      0.166708   -2.906272    0.897105
C      0.128607   -2.464153   -0.583453
C     -1.313843   -2.224385   -1.050332
C     -1.976013   -1.036820   -0.334116
C     -1.006446    0.133092    0.014118
C      0.253928    0.153231   -0.906004
C      1.012730   -1.230211   -0.958272
C      2.409308   -1.225431   -0.276207
C      2.479216   -0.228815    0.881493
C      2.167110    1.151372    0.362479
C      1.172770    1.299389   -0.527138
C      2.949699    2.322496    0.819749
O      3.855053    2.182632    1.685431
O      2.690012    3.590752    0.305472
C     -1.751638    1.507874    0.105677
C     -2.217197    2.073474   -1.250467
C     -2.896319    1.435787    1.090774
O     -4.064962    1.172478    0.699205
O     -2.660605    1.603294    2.452554
H      1.148724   -3.349146    1.157007
H     -0.590928   -3.698969    1.074854
H     -0.040272   -2.077114    1.596417
H      0.511551   -3.333070   -1.165570
H     -1.926055   -3.139785   -0.894976
H     -1.307275   -2.027228   -2.145645
H     -2.436595   -1.404369    0.609383
H     -2.813313   -0.693434   -0.973794
H     -0.629167   -0.051158    1.041660
H     -0.105374    0.358409   -1.938414
H      1.242128   -1.382171   -2.039446
H      3.174426   -0.923630   -1.027452
H      2.715872   -2.235810    0.061006
H      1.757056   -0.501038    1.678569
H      3.500514   -0.269666    1.316442
H      0.958348    2.275546   -0.944804
H      3.219455    4.396659    0.615998
H     -1.042836    2.255905    0.522322
H     -2.756671    3.031813   -1.091364
H     -1.350464    2.294715   -1.905371
H     -2.898463    1.378833   -1.780870
H     -1.728779    1.784922    2.805977
