41

C      1.762034    3.947597    1.110681
C      1.289456    2.777710    1.922205
O      1.872677    2.503587    2.960264
C      0.098302    1.952216    1.496508
C      0.461503    0.459490    1.300867
C      1.537537    0.169845    0.259267
C      1.790615    1.015303   -0.838905
C      2.773915    0.689822   -1.776979
C      3.522431   -0.492323   -1.648377
C      3.262824   -1.343563   -0.562709
C      2.279994   -1.018121    0.375384
N      4.535133   -0.830416   -2.613743
O      4.759300   -0.084531   -3.589809
O      5.274130   -1.983336   -2.477220
C     -0.789413   -0.384462    1.044879
C     -1.537240   -0.258197   -0.149533
C     -2.683997   -1.066891   -0.340028
C     -3.485832   -1.017501   -1.502004
C     -4.606285   -1.844961   -1.624669
C     -4.944874   -2.729194   -0.600838
C     -4.163840   -2.792146    0.552889
C     -3.039545   -1.970321    0.689191
O     -2.315028   -2.051522    1.795440
C     -1.233999   -1.315239    2.010493
O     -0.612739   -1.465330    3.096320
O     -1.116745    0.668162   -1.108935
H      2.798025    3.759332    0.759211
H      1.112196    4.119711    0.227900
H      1.751896    4.863215    1.738141
H     -0.667940    2.029477    2.298628
H     -0.366881    2.374847    0.583481
H      0.905432    0.152604    2.273164
H      1.230924    1.926466   -0.986526
H      2.946069    1.363535   -2.606545
H      3.817379   -2.264682   -0.438628
H      2.095512   -1.698026    1.198377
H     -3.273331   -0.356367   -2.326154
H     -5.214715   -1.799993   -2.518931
H     -5.813406   -3.367115   -0.701887
H     -4.432075   -3.481430    1.343666
H     -1.579400    0.842747   -1.988290
