20

C      2.762263    1.016592   -1.079278
C      2.206672    0.149524    0.009510
O      2.618461   -0.992989    0.145556
C      1.152348    0.678039    0.940209
C     -0.147255   -0.032631    0.709862
C     -1.008705    0.370950   -0.320808
C     -2.202706   -0.329066   -0.514820
C     -2.503912   -1.408072    0.316061
C     -1.597170   -1.759773    1.320573
O     -1.846104   -2.731716    2.080701
O     -0.469021   -1.072354    1.477909
O     -3.089742    0.036786   -1.524521
H      1.940230    1.345969   -1.748670
H      3.512481    0.459867   -1.680505
H      3.250231    1.908243   -0.633233
H      1.482478    0.528557    1.990649
H      1.013193    1.770867    0.788237
H     -0.754045    1.208719   -0.958461
H     -3.424222   -1.963531    0.181844
H     -2.895474    0.816020   -2.142542
