32

C      3.714822    0.329600   -2.567052
C      2.566911    0.877572   -1.723759
C      2.404046    0.079355   -0.424943
C      1.256394    0.638129    0.424266
C      1.091957   -0.162673    1.721320
C     -0.060308    0.367527    2.533066
O      0.011100    1.484241    3.025435
C     -1.312357   -0.444064    2.714945
C     -2.195854   -0.293810    1.513532
C     -2.086139   -1.177862    0.429357
C     -2.904576   -0.981500   -0.686301
C     -3.807110    0.082499   -0.692175
C     -3.863491    0.926273    0.421564
O     -4.669001    1.894184    0.438272
O     -3.067222    0.713514    1.466111
O     -2.827539   -1.831854   -1.787096
H      4.671308    0.393489   -2.005862
H      3.520435   -0.728936   -2.841930
H      3.809193    0.926332   -3.498767
H      1.627935    0.824202   -2.317190
H      2.773211    1.943853   -1.485530
H      2.194855   -0.984989   -0.672298
H      3.350161    0.127680    0.158674
H      0.310601    0.591622   -0.159874
H      1.465819    1.702483    0.671695
H      2.020881   -0.098083    2.328646
H      0.920029   -1.232841    1.472952
H     -1.858395   -0.098130    3.619671
H     -1.053520   -1.512680    2.878066
H     -1.374235   -1.995101    0.449673
H     -4.450554    0.251112   -1.547436
H     -2.179358   -2.611142   -1.808817
