24

C     -2.037652   -0.908625    0.029690
C     -2.620419    0.357990   -0.126208
N     -1.829033    1.419215   -0.463859
C     -0.483894    1.291202   -0.641664
O      0.201757    2.309568   -0.931280
C      0.134377    0.033761   -0.500436
C     -0.663427   -1.067866   -0.148815
O     -0.098750   -2.327510    0.024455
C      1.629943   -0.121547   -0.663860
C      2.342605    0.094473    0.673450
C      3.821729   -0.054570    0.509074
O      4.363308   -1.182724    0.656962
O      4.593055    1.045907    0.148979
C     -4.080142    0.552961    0.049966
O     -4.642818    1.546314   -0.481755
O     -4.855827   -0.325724    0.805634
H     -2.635995   -1.777973    0.265705
H     -2.255737    2.367241   -0.576913
H      2.010729    0.606170   -1.413837
H      1.868354   -1.134162   -1.056998
H      2.122031    1.114054    1.057708
H      1.977398   -0.643860    1.420739
H      5.593678    0.958225    0.017726
H     -4.455270   -1.081595    1.345537
