29

C     -3.473023    0.178661    1.199067
C     -2.360558    0.284940    0.147538
C     -2.966045    0.191893   -1.261195
C     -1.296098   -0.809755    0.401142
C     -0.082169   -0.775719   -0.550557
C      0.786963    0.448189   -0.355235
C      2.007822    0.129843    0.095380
C      2.051320   -1.318658    0.178498
O      3.029416   -2.008547    0.569340
N      0.817003   -1.876743   -0.225766
C      3.112707    1.055925    0.437810
O      2.864327    2.245753    0.768741
C      4.531678    0.581633    0.473425
O      0.359474    1.734385   -0.687696
H     -3.993500   -0.800381    1.122450
H     -4.216686    0.991878    1.057157
H     -3.047816    0.279916    2.220508
H     -1.897547    1.286383    0.266786
H     -3.345961   -0.833400   -1.458795
H     -3.806728    0.910361   -1.368146
H     -2.211005    0.457430   -2.029294
H     -0.926149   -0.719446    1.447171
H     -1.780812   -1.807426    0.312358
H     -0.390365   -0.865824   -1.612636
H      0.587736   -2.894912   -0.265506
H      4.712084    0.014223    1.410065
H      4.739442   -0.068907   -0.402042
H      5.228395    1.446040    0.438590
H      0.966093    2.542267   -0.666123
