17

C     -0.848569   -0.862048   -0.787735
C      0.534013   -0.911854   -0.590633
C      1.167449   -0.002961    0.276587
C      0.380325    0.956135    0.950622
C     -1.003949    0.998670    0.749745
C     -1.623538    0.093102   -0.119983
N     -3.038460    0.141575   -0.322124
O      0.962159    1.882026    1.810604
C      2.635132   -0.074358    0.485526
O      3.135765    0.297292    1.579917
O      3.488271   -0.547478   -0.510518
H     -1.316791   -1.573445   -1.456517
H      1.099353   -1.681066   -1.099908
H     -1.596205    1.741285    1.270214
H     -3.509620   -0.530362   -0.968192
H     -3.625382    0.849877    0.172567
H      3.160046   -0.776392   -1.440172
