43

C      6.622115   -2.308657   -0.423760
O      6.547075   -0.925372   -0.753181
C      5.419739   -0.115247   -0.541758
C      5.479264    1.239304   -0.913875
C      4.370209    2.066721   -0.720915
C      3.198855    1.561945   -0.153921
C      3.123396    0.213418    0.241002
C      4.234427   -0.620056    0.029888
C      1.896018   -0.372942    0.834092
C      0.963509    0.350023    1.472157
C     -0.259743   -0.231756    2.068783
O     -1.004294    0.522910    2.749884
C     -0.668693   -1.670319    1.883242
C     -1.102529   -1.935082    0.464505
O     -0.359189   -2.637773   -0.271323
C     -2.349440   -1.392454   -0.119971
C     -3.281090   -0.739388    0.590539
C     -4.531459   -0.200225    0.001835
C     -5.627594    0.036458    0.848751
C     -6.821672    0.554837    0.338930
C     -6.934351    0.855523   -1.020939
C     -5.843384    0.639724   -1.871904
C     -4.647445    0.120467   -1.366205
O     -8.130332    1.371165   -1.515176
O      6.632391    1.780968   -1.481811
H      5.856115   -2.878534   -0.990908
H      7.625682   -2.692553   -0.699021
H      6.474917   -2.449916    0.667848
H      4.414361    3.106498   -1.019793
H      2.352138    2.226513   -0.052283
H      4.172173   -1.660272    0.321586
H      1.792363   -1.447592    0.778919
H      1.104140    1.414334    1.603866
H     -1.494914   -1.930087    2.578929
H      0.177173   -2.335476    2.159276
H     -2.507722   -1.578237   -1.173642
H     -3.157987   -0.629921    1.659003
H     -5.562447   -0.188811    1.906430
H     -7.660190    0.724306    1.002469
H     -5.918221    0.881416   -2.924588
H     -3.815407   -0.002223   -2.045521
H     -8.242901    1.600453   -2.495811
H      7.464946    1.227836   -1.645627
