19

C      3.120000   -0.100612   -0.594683
C      1.644294   -0.280838   -0.412902
N      1.022241   -1.328360   -1.012452
C     -0.311386   -1.544336   -0.886401
C     -1.107029   -0.677952   -0.117634
C     -0.490335    0.438499    0.499982
C      0.897867    0.625056    0.354122
O      1.530590    1.713385    0.950860
C     -1.270612    1.428759    1.276491
O     -0.889177    1.764344    2.428836
O     -2.405524    2.028611    0.736111
C     -2.543320   -0.988234    0.075713
O     -3.103359   -1.904737   -0.582950
H      3.319822    0.861090   -1.112363
H      3.542594   -0.927119   -1.204746
H      3.624101   -0.097693    0.394670
H     -0.744918   -2.407832   -1.374123
H     -2.700330    1.839651   -0.214475
H     -3.135518   -0.441682    0.795943
