19

C     -2.058620    1.461721    0.578248
C     -3.080978    0.710045   -0.002081
C     -2.798673   -0.537332   -0.561142
C     -1.491344   -1.036495   -0.549163
C     -0.446124   -0.280328    0.021531
C     -0.749620    0.971704    0.596295
C      0.932145   -0.834070    0.040981
C      2.033406   -0.071238    0.095042
C      3.391534   -0.648102    0.102633
O      3.563458   -1.896259    0.082140
O      4.503863    0.187802    0.134715
O     -1.239617   -2.281975   -1.116016
H     -2.281821    2.423071    1.022852
H     -4.093891    1.091387   -0.012913
H     -3.596749   -1.118657   -1.005329
H      0.011916    1.565081    1.083523
H      1.043826   -1.909303   -0.033266
H      1.952267    1.007034    0.107013
H      4.405023    1.195915    0.152699
