32

C     -3.496776    0.891966    1.140298
C     -4.882556    1.078079    1.114365
C     -5.641108    0.582000    0.046961
C     -5.007919   -0.105836   -0.991430
C     -3.622935   -0.294853   -0.969025
C     -2.848739    0.212522    0.088414
C     -1.383887   -0.023064    0.073681
C     -0.504459    0.728315    0.753842
C      0.955597    0.495614    0.726927
O      1.696283    1.305347    1.349290
C      1.568210   -0.663811   -0.023256
C      3.052663   -0.764255    0.188404
C      3.942157   -0.064668   -0.640285
C      5.314544   -0.169778   -0.397571
C      5.761906   -0.961484    0.659947
C      4.819729   -1.626651    1.450290
O      5.199567   -2.344200    2.412203
O      3.520330   -1.504764    1.192128
O      6.235282    0.505229   -1.195569
O     -7.021823    0.763339    0.011244
H     -2.947736    1.259917    1.995741
H     -5.366759    1.601674    1.928947
H     -5.589890   -0.495842   -1.816859
H     -3.153293   -0.831384   -1.784671
H     -1.022485   -0.821318   -0.561865
H     -0.849448    1.572366    1.335382
H      1.352011   -0.553495   -1.108006
H      1.098125   -1.608998    0.323524
H      3.574496    0.549900   -1.452899
H      6.821515   -1.055750    0.864548
H      5.937718    1.087363   -1.969821
H     -7.510321    1.256518    0.749512
