13

C     -2.802526   -0.023968   -0.001047
C     -1.593140   -0.385801   -0.419924
C     -0.375135    0.133505    0.230031
C      0.854318   -0.217516   -0.175399
C      2.063625    0.309562    0.483840
O      1.978132    1.110759    1.454156
O      3.317527   -0.084145    0.027045
O      1.014942   -1.098491   -1.241234
H     -2.928051    0.661440    0.828177
H     -3.684322   -0.415989   -0.491073
H     -1.517585   -1.073882   -1.253217
H     -0.490667    0.820392    1.061213
H      4.162881    0.264133    0.463415
