19

C      0.300217   -2.072999   -0.817552
C     -0.144814   -0.705710   -0.364732
C     -1.515570   -0.397510   -0.415873
C     -1.986685    0.842852    0.023972
C     -1.089868    1.790720    0.512502
C      0.278869    1.515778    0.555375
C      0.774529    0.269199    0.112602
C      2.237235    0.013353    0.157853
O      2.795821   -0.684637   -0.730348
O      3.012162    0.562481    1.175992
O      1.141285    2.502572    1.022791
O     -3.346608    1.142662   -0.019751
H      1.003444   -2.513126   -0.079597
H      0.793309   -1.997073   -1.809041
H     -0.558483   -2.771748   -0.910680
H     -2.224444   -1.126537   -0.789682
H     -1.456470    2.751720    0.851612
H      4.011663    0.401741    1.213754
H     -4.025590    0.476263   -0.368769
