21

C      3.334765   -0.163348   -0.136384
C      1.849881   -0.337931   -0.044356
N      1.346985   -1.466848    0.516309
C      0.013214   -1.682344    0.631653
C     -0.908815   -0.733695    0.163386
C     -0.417682    0.462060   -0.426685
C      0.978072    0.650018   -0.524574
O      1.502522    1.809878   -1.090220
C     -1.356951    1.553296   -0.904691
O     -2.152069    2.015433    0.153229
C     -2.356407   -1.026945    0.308002
O     -3.160307   -0.747026   -0.619269
O     -2.848277   -1.642872    1.457149
H      3.643671    0.736774    0.435638
H      3.634833   -0.045188   -1.198880
H      3.859379   -1.047825    0.283591
H     -0.326219   -2.610461    1.073121
H     -0.815982    2.411417   -1.360196
H     -2.010043    1.155588   -1.707619
H     -1.557334    2.553164    0.739009
H     -2.253237   -1.843144    2.251788
