19

C      2.471897   -0.700074    0.809120
C      2.818403    0.564095    0.325911
C      1.921159    1.277420   -0.473322
C      0.670403    0.732825   -0.785753
C      0.303580   -0.528270   -0.273460
C      1.223122   -1.249215    0.503321
C     -0.994462   -1.148389   -0.606828
C     -2.195757   -0.615066   -0.334501
C     -2.434365    0.610615    0.459321
O     -1.526392    1.116967    1.169971
O     -3.696912    1.195973    0.463707
O     -0.193699    1.441862   -1.613884
H      3.172193   -1.255998    1.419059
H      3.786042    0.987142    0.562937
H      2.200959    2.249721   -0.858511
H      0.968462   -2.231942    0.881471
H     -0.967951   -2.113623   -1.097884
H     -3.069568   -1.146669   -0.690549
H     -4.457112    0.812626   -0.085409
