17

C      1.144793   -1.110438   -0.504625
C     -0.011743   -0.455037   -0.739064
C     -0.187303    0.964891   -0.361770
C     -1.128373    1.425421    0.478514
C     -2.049684    0.561901    1.248449
O     -3.052880    1.075020    1.809796
O     -1.809614   -0.797304    1.412130
O     -1.232636    2.801732    0.650403
C     -1.103800   -1.118552   -1.493918
O     -1.039861   -2.342941   -1.785728
O     -2.218954   -0.389932   -1.891795
C      2.303707   -0.569316    0.238226
O      3.372191   -1.235817    0.269896
O      2.236397    0.640181    0.924356
H      1.256335   -2.124065   -0.871785
H      0.485657    1.680584   -0.819490
H      3.035769    0.993672    1.436405
