15

C      0.183812   -0.878429    0.231485
C      1.473006   -1.231081    0.127392
C      2.624278   -0.351246    0.404212
O      3.764984   -0.860641    0.556683
O      2.492233    1.031964    0.430785
C     -0.298279    0.378304    0.842129
C     -1.325890    1.085915    0.347588
C     -2.034285    0.806808   -0.918565
O     -3.107270    1.418850   -1.165137
O     -1.524295   -0.081276   -1.861470
O      0.291888    0.814742    2.024292
H     -0.559800   -1.598710   -0.087465
H      1.692645   -2.230930   -0.227748
H     -1.660230    1.949375    0.911101
H     -2.012798   -0.253644   -2.732004
