40

C     -4.963005    0.332938   -0.150708
C     -3.485367    0.736340   -0.301456
C     -3.361326    1.831268   -1.376227
C     -2.529237   -0.473263   -0.568011
C     -2.412203   -1.365356    0.632433
O     -3.312505   -2.124812    1.079044
N     -1.105599   -1.318974    1.165966
C     -0.415905   -0.447138    0.281625
N     -1.148111    0.006695   -0.688379
C      1.031953   -0.172775    0.361639
N      1.719078   -0.069235   -0.809484
C      3.063156    0.115889   -0.854528
C      3.718432    0.212480   -2.087628
C      5.104076    0.396330   -2.130427
C      5.838185    0.484030   -0.943180
C      5.190399    0.388632    0.292889
C      3.800176    0.202215    0.343054
C      3.121804    0.116156    1.562982
C      1.728085   -0.056616    1.592475
C      1.035735   -0.015159    2.901412
O     -0.051832    0.608762    3.021431
O      1.585992   -0.632186    4.022769
C     -2.888273   -1.299629   -1.815661
H     -5.570047    1.222344    0.122994
H     -5.094534   -0.414084    0.656703
H     -5.365951   -0.077906   -1.099844
H     -3.176440    1.202296    0.661972
H     -3.967960    2.716026   -1.086903
H     -3.724883    1.470445   -2.360775
H     -2.309030    2.169003   -1.479649
H     -0.702962   -1.940404    1.901954
H      3.157488    0.144713   -3.011604
H      5.609638    0.470844   -3.084528
H      6.910367    0.627108   -0.981099
H      5.772175    0.460775    1.204036
H      3.674974    0.224660    2.488967
H      2.433889   -1.183004    3.965046
H     -3.883213   -1.778793   -1.705341
H     -2.138481   -2.106024   -1.968917
H     -2.888738   -0.664591   -2.724892
