31

C      4.010281   -0.294144   -0.725277
C      3.555436    0.501329    0.498151
C      2.240683    1.259347    0.259056
C      1.028391    0.321543    0.164594
C     -0.275257    1.118686    0.040660
C     -1.462045    0.185280   -0.065503
C     -1.844082   -0.417393   -1.292236
C     -2.884236   -1.366550   -1.303459
C     -3.543383   -1.705982   -0.119893
C     -3.172262   -1.116162    1.088196
C     -2.132132   -0.180726    1.115509
O     -3.838649   -1.471528    2.258933
O     -3.276440   -1.972062   -2.493392
C     -1.170244   -0.083507   -2.563168
O     -0.563886   -0.981777   -3.203978
O     -1.234081    1.204316   -3.087529
H      3.316067   -1.135548   -0.928266
H      5.018841   -0.717893   -0.535065
H      4.066724    0.363795   -1.618409
H      3.451046   -0.181511    1.369201
H      4.346941    1.241723    0.745179
H      2.321180    1.869058   -0.667723
H      2.088414    1.958533    1.110406
H      1.134984   -0.336491   -0.723748
H      0.981392   -0.316791    1.074441
H     -0.390380    1.776354    0.930554
H     -0.221701    1.793557   -0.836465
H     -4.345762   -2.433001   -0.139595
H     -1.836123    0.251935    2.063630
H     -3.592730   -1.063838    3.153485
H     -1.776987    1.929447   -2.633821
