21

C      1.431533    0.312522    0.983921
C      0.149266    0.012180    0.749492
C     -0.950838    0.555498    1.580501
O     -0.679728    1.163019    2.651707
C     -2.375356    0.381627    1.225420
C     -2.801549    0.064008   -0.004779
C     -4.230174   -0.088767   -0.326191
O     -5.115319    0.053859    0.560699
O     -4.604347   -0.397099   -1.629873
C      2.507459   -0.255873    0.148453
C      3.801323    0.028997    0.358926
C      4.864596   -0.547165   -0.485035
O      4.591230   -1.328793   -1.435042
O      6.191771   -0.224970   -0.231420
O      4.170997    0.885629    1.392086
H      1.687019    0.985235    1.794089
H     -0.087216   -0.665974   -0.060188
H     -3.102562    0.566189    2.007596
H     -2.098874   -0.067166   -0.815649
H     -5.580215   -0.508407   -1.878116
H      2.230986   -0.924549   -0.659249
