24

C     -2.886546    1.975754    0.163154
O     -2.956423    0.556143    0.075967
C     -1.843430   -0.299465    0.102584
C     -0.526364    0.184708    0.228247
C      0.566272   -0.704444    0.244564
C      0.321805   -2.083492    0.163047
C     -0.980833   -2.573253    0.037674
C     -2.062526   -1.679787    0.003985
O     -3.361470   -2.160868   -0.123393
O     -1.180643   -3.950581   -0.051924
C      1.968723   -0.240266    0.385323
C      2.382643    0.989177    0.046207
C      3.788996    1.412819    0.187812
O      4.655081    0.629750    0.661713
O      4.174378    2.692127   -0.201955
H     -2.431966    2.277106    1.130486
H     -3.912818    2.393005    0.108487
H     -2.292394    2.381745   -0.682694
H     -0.359264    1.245332    0.338781
H      1.147366   -2.785159    0.186783
H     -2.104453   -4.355789   -0.143774
H      2.697477   -0.959736    0.741099
H      1.690188    1.705594   -0.373162
H      3.506202    3.349579   -0.586257
