28

C     -3.667520   -1.243468    1.082135
C     -2.910263   -0.272371    0.214015
C     -1.568389   -0.166289    0.327605
C     -0.745872    0.783686   -0.508549
C      0.715855    0.683641   -0.151107
C      1.244040    1.407322    0.933531
C      2.594604    1.281372    1.266697
C      3.425352    0.426214    0.539271
C      2.910862   -0.326997   -0.530347
C      1.552631   -0.187117   -0.869792
C      3.778625   -1.243609   -1.309854
O      3.445798   -1.576352   -2.478536
O      4.957436   -1.767451   -0.780109
O      0.433863    2.252794    1.684393
C     -3.689667    0.563459   -0.770253
H     -4.410661   -0.690442    1.694002
H     -2.998249   -1.805158    1.768620
H     -4.201912   -1.974433    0.439804
H     -1.050194   -0.790896    1.052188
H     -0.887534    0.545827   -1.585198
H     -1.099557    1.825134   -0.350569
H      3.002932    1.850796    2.092122
H      4.471492    0.376050    0.807753
H      1.138745   -0.765072   -1.687790
H      5.232542   -1.626696    0.183142
H     -3.345049    0.354380   -1.804660
H     -3.555505    1.642090   -0.544382
H     -4.774404    0.331291   -0.714131
