37

C     -0.544022   -0.638070   -0.004318
C     -1.847534   -0.027788   -0.543509
C     -2.648408    0.715302    0.537610
N     -3.974986    1.085873    0.036036
C     -4.994535    0.272823   -0.068416
N     -4.907941   -1.106845    0.317640
N     -6.238682    0.766968   -0.573849
C      0.521869    0.428521    0.315547
N      1.768046   -0.163078    0.836980
C      2.572836   -0.806751   -0.218524
C      3.974770   -1.198575    0.297398
C      5.080933   -0.211784   -0.118041
N      4.913871    1.104604    0.498990
H     -0.760550   -1.244275    0.902229
H     -0.153487   -1.324991   -0.783382
H     -2.464324   -0.852717   -0.958936
H     -1.622747    0.666223   -1.382759
H     -2.736856    0.117836    1.470327
H     -2.105405    1.646277    0.806496
H     -4.104990    2.086939   -0.236857
H     -4.041893   -1.537790    0.706024
H     -5.742896   -1.725109    0.215909
H     -6.344896    1.764182   -0.865376
H     -7.063320    0.132654   -0.660548
H      0.729823    1.044146   -0.588285
H      0.116106    1.116443    1.088401
H      2.323446    0.605741    1.277084
H      1.543262   -0.861881    1.583948
H      2.064098   -1.737558   -0.550999
H      2.661891   -0.145608   -1.109711
H      3.971602   -1.322294    1.402519
H      4.240095   -2.190208   -0.130636
H      5.099420   -0.108318   -1.225769
H      6.061780   -0.635534    0.192415
H      4.087953    1.594667    0.086581
H      5.765689    1.679647    0.306792
H      4.799981    1.010328    1.534326
