22

C      0.759528   -0.664743   -1.663709
C     -0.551381   -0.844193   -1.219000
C     -0.975991   -0.307256    0.013465
C     -2.302773   -0.470866    0.496490
C     -2.663619    0.085709    1.727276
C     -1.740961    0.798990    2.487930
C     -0.434885    0.971243    2.032922
C     -0.038486    0.423328    0.797009
C      1.279121    0.594425    0.333078
C      1.685766    0.053316   -0.896434
C      3.072835    0.235398   -1.381237
O      3.910688    0.880849   -0.694678
O      3.466349   -0.305557   -2.602701
O      0.461349    1.689852    2.818900
O     -3.293268   -1.170752   -0.199668
H      1.047285   -1.092640   -2.616045
H     -1.209904   -1.407093   -1.860320
H     -3.673598   -0.037116    2.098107
H     -2.043059    1.221107    3.438142
H      1.992988    1.150314    0.928948
H      4.412882   -0.186845   -2.943659
H     -3.160867   -1.617470   -1.094815
