50

C      5.179693    2.758264    1.074949
C      5.258768    1.395757    1.753076
N      4.693880    0.358514    0.887926
C      5.346677   -0.271148   -0.211846
C      6.711094   -0.302848   -0.509203
C      7.119086   -0.993322   -1.664792
C      6.167282   -1.627105   -2.492542
C      4.798903   -1.572278   -2.173915
C      4.423575   -0.881430   -1.024905
O      3.143493   -0.679349   -0.535717
C      3.304460    0.092339    0.619170
C      2.287030    0.556154    1.360041
C      0.862825    0.289158    1.072877
C      0.416406   -0.875935    0.579053
C     -1.009554   -1.174585    0.323644
C     -1.954865   -0.240017    0.157897
C     -3.360181   -0.608607   -0.103455
N     -4.366239    0.283639   -0.326172
C     -5.456018   -0.494838   -0.470007
C     -6.787121   -0.129025   -0.684936
C     -7.737104   -1.162556   -0.795007
C     -7.341404   -2.515713   -0.684959
C     -5.992289   -2.847920   -0.459952
C     -5.080167   -1.801998   -0.355247
O     -3.790960   -1.861577   -0.131155
C     -4.306354    1.748043   -0.313507
C     -4.452952    2.271303    1.109728
H      5.749953    2.743771    0.122004
H      5.614401    3.532434    1.741276
H      4.121508    3.020646    0.863448
H      6.318617    1.158394    1.983156
H      4.714797    1.423985    2.719925
H      7.438821    0.183545    0.125775
H      8.169611   -1.038727   -1.920874
H      6.492107   -2.155259   -3.379457
H      4.059119   -2.047111   -2.804763
H      2.495022    1.227299    2.181401
H      0.161945    1.051811    1.382188
H      1.110681   -1.689915    0.419404
H     -1.273879   -2.220307    0.221120
H     -1.697581    0.807583    0.198686
H     -7.088687    0.906683   -0.762680
H     -8.778057   -0.919245   -0.963406
H     -8.081054   -3.301154   -0.770415
H     -5.676293   -3.878577   -0.366671
H     -5.114352    2.170477   -0.947295
H     -3.345597    2.097302   -0.746283
H     -3.632055    1.881111    1.747705
H     -4.408544    3.380597    1.106647
H     -5.428445    1.951738    1.533853
