26

C     -4.448231   -0.939724   -0.020048
C     -3.928295   -0.167127   -1.060122
C     -2.667906    0.424611   -0.932618
C     -1.908222    0.244851    0.239493
C     -2.448545   -0.531238    1.284594
C     -3.710044   -1.119819    1.151233
C     -0.571668    0.882409    0.361125
O     -0.283123    1.854532   -0.391059
C      0.426310    0.433675    1.401644
C      1.841277    0.755982    1.010248
C      2.447951    0.114768    0.004662
C      3.839646    0.411562   -0.395591
O      4.502396    1.292506    0.216858
C      4.474251   -0.310257   -1.509720
O      3.840833   -1.196220   -2.144327
O      5.786009   -0.012434   -1.866880
H     -5.424515   -1.396127   -0.120349
H     -4.502092   -0.026522   -1.967083
H     -2.283970    1.015254   -1.755141
H     -1.910413   -0.672692    2.212311
H     -4.117625   -1.712906    1.959789
H      0.348529   -0.662723    1.566308
H      0.190250    0.945614    2.358557
H      2.367557    1.517547    1.573347
H      1.899753   -0.646970   -0.537531
H      6.239886   -0.498554   -2.631083
