42

C     -6.088678   -0.736540   -0.789324
C     -4.836076    0.003591   -0.307379
C     -4.156280    0.668509   -1.491446
C     -2.826818    0.683989   -1.621746
C     -1.971093   -0.054290   -0.680369
C     -2.576436   -0.875816    0.278376
O     -3.973149   -0.945669    0.337204
C     -1.785294   -1.636999    1.152129
C     -0.390605   -1.559623    1.070232
C      0.226779   -0.727598    0.119354
C     -0.574845    0.017604   -0.762814
C      1.708053   -0.658393    0.032611
C      2.459241   -1.839140    0.017985
O      3.782206   -1.801395   -0.039206
C      4.469713   -0.667779   -0.108658
C      5.864984   -0.732641   -0.137569
C      6.625672    0.432735   -0.191577
C      5.989153    1.675133   -0.248955
C      4.592163    1.770626   -0.261437
C      3.804287    0.586675   -0.142919
C      2.392827    0.571456   -0.017355
O      1.737870    1.640388    0.105006
O      4.054791    3.050842   -0.424195
O      8.016172    0.345948   -0.197139
O     -2.365557   -2.469916    2.107888
C     -5.225719    1.080951    0.712650
H     -6.594674   -1.234738    0.065446
H     -6.806102   -0.033666   -1.266008
H     -5.809321   -1.516540   -1.529994
H     -4.755311    1.235596   -2.194436
H     -2.379730    1.235566   -2.439924
H      0.210939   -2.141215    1.758308
H     -0.114195    0.637246   -1.523237
H      1.966555   -2.802399    0.054562
H      6.360918   -1.695092   -0.103688
H      6.584675    2.577231   -0.317959
H      3.117021    3.242292   -0.743453
H      8.598830    1.174036   -0.238484
H     -3.370109   -2.556065    2.206143
H     -4.319315    1.614516    1.071824
H     -5.725379    0.617682    1.590397
H     -5.918162    1.822902    0.258823
