19

C     -1.783945    0.509426    1.057297
C     -1.176712    0.117988   -0.303455
C      0.061842   -0.791595   -0.149069
C      1.275421   -0.053403    0.333522
O      1.419999    0.479515    1.465114
C      2.291049   -0.120446   -0.696245
C      1.796083   -0.819699   -1.694362
O      0.497077   -1.246720   -1.433637
O      2.478948   -1.104645   -2.869584
O      3.563773    0.438986   -0.652330
O     -2.146657   -0.516846   -1.099731
O     -2.953684    1.260498    0.873846
H     -1.054637    1.093352    1.660646
H     -2.040306   -0.406556    1.631364
H     -0.869369    1.049239   -0.829070
H     -0.149752   -1.664944    0.505462
H      3.870418    0.963751    0.157664
H     -2.412410   -1.354697   -0.636801
H     -2.667138    2.166795    0.586820
