23

C      2.008346    1.270621   -1.557424
C      1.949941   -0.100207   -0.880651
C      0.516601   -0.461320   -0.592508
O     -0.200261   -0.953459   -1.507057
N     -0.047397   -0.192378    0.699752
C     -1.452654   -0.473709    1.008912
C     -1.692691   -0.422549    2.519790
C     -2.343246    0.514738    0.313015
O     -2.099272    1.749792    0.382307
O     -3.457883    0.066394   -0.388564
N      2.564775   -1.113047   -1.739993
H      1.537050    2.039253   -0.907663
H      1.477298    1.246605   -2.533485
H      3.065217    1.564052   -1.732501
H      2.515505   -0.046016    0.077157
H      0.565359    0.233040    1.432674
H     -1.701638   -1.500917    0.661618
H     -1.045176   -1.167521    3.029345
H     -2.752725   -0.665927    2.747654
H     -1.459897    0.587491    2.921093
H     -4.074409    0.719842   -0.856584
H      3.574001   -0.868434   -1.867621
H      2.553157   -2.026346   -1.229268
