33

C      3.892348    1.865738   -0.635271
C      3.439041    0.444791   -0.292080
C      4.240294   -0.081562    0.868032
O      3.963388    0.279478    2.042895
O      5.318269   -0.935992    0.654508
N      2.008459    0.423238    0.029137
C      1.263978   -0.803936    0.099741
O      1.834576   -1.901904   -0.144754
C     -0.200893   -0.803838    0.469734
C     -1.024992    0.007709   -0.546586
C     -2.503549   -0.134347   -0.290319
C     -3.207391   -1.237707   -0.801712
C     -4.573179   -1.384792   -0.540071
C     -5.243258   -0.437452    0.238889
C     -4.547949    0.657083    0.760221
C     -3.182136    0.808124    0.500944
N     -0.397503   -0.290828    1.828445
H      3.309700    2.248541   -1.500104
H      3.738570    2.546790    0.229580
H      4.969140    1.868262   -0.909739
H      3.616022   -0.191189   -1.187268
H      5.581045   -1.228814   -0.278852
H      1.515445    1.324755    0.219715
H     -0.565643   -1.856005    0.442421
H     -0.798682   -0.349677   -1.575727
H     -0.738146    1.081204   -0.509006
H     -2.697890   -1.982804   -1.400225
H     -5.111491   -2.234893   -0.938838
H     -6.300127   -0.553394    0.441460
H     -5.066761    1.387203    1.367859
H     -2.653818    1.656709    0.917710
H     -0.034556    0.687616    1.895267
H      0.157690   -0.878110    2.492919
