47

C     -1.222026    0.287421   -2.057095
C     -1.962921   -0.792280   -1.318325
C     -1.741609   -1.046256    0.059137
C     -2.460967   -2.089089    0.696139
C     -3.434593   -2.800809   -0.021406
C     -3.676459   -2.513606   -1.362199
C     -2.945971   -1.519171   -2.007655
C     -2.216817   -2.442198    2.137706
N     -0.772639   -0.272115    0.803118
C     -1.283884    0.764233    1.733802
C     -0.690514    0.636127    3.147579
C     -1.114398    2.161329    1.195450
O     -1.627724    3.127957    1.823625
O     -0.411326    2.391300    0.010250
C     -0.233116    3.691530   -0.537381
C      0.618566   -0.670745    0.703400
O      0.893841   -1.827064    0.276843
C      1.762977    0.220803    1.116013
C      2.877352    0.170118    0.103206
C      2.829754    0.980766   -1.043408
C      3.846912    0.909376   -1.999958
C      4.913811    0.024286   -1.823174
C      4.963453   -0.793390   -0.690884
C      3.947906   -0.725431    0.268082
H     -0.172842    0.364344   -1.709911
H     -1.742027    1.256230   -1.911303
H     -1.186851    0.069343   -3.145801
H     -4.008040   -3.585246    0.457149
H     -4.430735   -3.068171   -1.905565
H     -3.149380   -1.314896   -3.051862
H     -1.127268   -2.499202    2.339520
H     -2.651192   -3.432698    2.391154
H     -2.683373   -1.679902    2.794751
H     -2.381861    0.618920    1.850983
H     -0.594790   -0.427866    3.442807
H     -1.359416    1.136518    3.880155
H      0.303495    1.119219    3.226698
H     -1.220517    4.151464   -0.753625
H      0.340029    3.612979   -1.483681
H      0.332056    4.328940    0.174954
H      1.444248    1.272838    1.228847
H      2.134568   -0.114884    2.107964
H      2.006628    1.665588   -1.196617
H      3.806467    1.538432   -2.879795
H      5.699894   -0.030613   -2.565127
H      5.787243   -1.482698   -0.557883
H      3.994056   -1.371729    1.135840
