39

C      6.107847    0.753470    0.415305
C      4.602710    0.601026    0.657794
C      3.823609    0.614699   -0.669409
C      2.365277    0.374997   -0.434921
O      1.576905    1.355040   -0.337718
O      1.902350   -0.936328   -0.276390
C      0.530043   -1.267540   -0.061964
C      0.458213   -2.685013    0.510203
C     -0.248047   -1.156766   -1.386717
C     -1.722992   -1.301577   -1.173188
O     -2.311544   -2.352743   -1.546670
O     -2.424179   -0.276640   -0.528723
C     -3.833668   -0.304426   -0.297823
C     -4.594708   -0.032390   -1.601602
C     -4.194938    0.713369    0.796757
C     -3.754098    2.108260    0.452920
O     -2.574172    2.472303    0.699841
O     -4.628046    2.996843   -0.166780
O      4.143124    1.608667    1.524780
H      6.325726    1.710869   -0.104818
H      6.647724    0.742584    1.385824
H      6.483369   -0.087896   -0.205430
H      4.439465   -0.381133    1.153896
H      4.209821   -0.185305   -1.337565
H      3.965285    1.588106   -1.188587
H      0.097806   -0.569920    0.690952
H     -0.590405   -2.955352    0.756330
H      0.863811   -3.419366   -0.218175
H      1.058457   -2.741839    1.442938
H     -0.066823   -0.161172   -1.843387
H      0.113966   -1.922689   -2.107469
H     -4.125743   -1.310756    0.077569
H     -5.687230    0.017631   -1.407611
H     -4.260614    0.923186   -2.057957
H     -4.410004   -0.850350   -2.328559
H     -3.706689    0.406892    1.747387
H     -5.291799    0.701169    0.976388
H     -5.578652    2.728083   -0.390925
H      4.288840    2.482004    1.074438
