39

C      3.827979   -0.266433   -1.422100
C      3.332840   -0.131283    0.029888
C      3.953809    1.135958    0.654710
C      3.777200   -1.359450    0.846011
C      1.816291   -0.046815    0.036298
N      1.123108    1.014927    0.522459
C     -0.162456    0.664995    0.323094
C     -0.233724   -0.560444   -0.256529
N      1.012715   -1.025384   -0.447910
C     -1.452064   -1.153507   -0.597268
C     -2.661416   -0.436352   -0.311136
C     -3.873914   -1.009702   -0.776613
C     -3.892938   -2.256739   -1.406535
C     -2.711801   -2.959057   -1.616998
C     -1.495219   -2.409458   -1.227688
F     -5.069516   -2.779828   -1.832642
C     -2.587109    0.836309    0.385271
C     -1.299443    1.396850    0.658333
C     -1.176411    2.650280    1.267735
C     -2.317475    3.345100    1.637277
N     -3.542032    2.798857    1.440504
C     -3.713151    1.576296    0.861906
O     -4.881504    1.114601    0.804791
H      3.436576   -1.194123   -1.891907
H      3.491415    0.601272   -2.030099
H      4.938282   -0.307574   -1.455161
H      3.656633    2.041618    0.082517
H      5.063632    1.073140    0.650291
H      3.618622    1.258837    1.707561
H      3.402709   -1.288612    1.890325
H      4.886136   -1.429751    0.875697
H      3.386439   -2.298279    0.398364
H      1.309642   -1.929243   -0.876151
H     -4.822756   -0.510814   -0.721785
H     -2.735864   -3.924113   -2.106969
H     -0.593779   -2.969759   -1.433348
H     -0.204978    3.088762    1.462681
H     -2.226946    4.315816    2.108605
H     -4.379533    3.333101    1.766522
