39

C      3.927709    1.716806    2.476402
C      3.081987    1.225866    1.293282
C      2.692698    2.388229    0.383711
C      1.847690    0.498555    1.748013
O      1.256612    0.842268    2.818025
O      1.300174   -0.486280    0.913620
C      0.180015   -1.280468    1.292989
C     -0.443041   -1.968927    0.063754
C     -1.674200   -2.783928    0.469114
C     -0.658017   -1.051163   -1.192925
C     -1.827131    0.009510   -1.216938
C     -1.555689    0.979872   -2.394430
C     -1.887835    0.856559    0.070025
C     -3.216024   -0.632541   -1.462966
O     -0.772301   -1.873140   -2.328608
H      3.369440    2.449468    3.087550
H      4.212569    0.862318    3.116686
H      4.857764    2.199162    2.112988
H      3.700332    0.516612    0.708613
H      2.089872    2.020857   -0.474313
H      3.604738    2.883437   -0.012841
H      2.095232    3.137681    0.944953
H     -0.565548   -0.674880    1.839593
H      0.526680   -2.058993    2.003630
H      0.319456   -2.719314   -0.248978
H     -2.391761   -2.162379    1.041624
H     -2.172623   -3.213256   -0.425233
H     -1.363451   -3.625940    1.125428
H      0.285860   -0.467405   -1.301193
H     -1.508768    0.431672   -3.358591
H     -2.358412    1.738481   -2.475138
H     -0.592648    1.520443   -2.254316
H     -2.542607    1.747174   -0.071466
H     -2.331219    0.279301    0.915212
H     -0.875566    1.224534    0.340005
H     -3.550286   -1.251873   -0.611518
H     -3.987769    0.153746   -1.590563
H     -3.216351   -1.261447   -2.381943
H      0.142422   -2.170617   -2.575435
