28

C      3.928129   -2.666733   -0.421863
C      3.422864   -1.575967   -0.330759
C      2.807947   -0.248440   -0.220472
C      1.631292   -0.285327    0.761736
C      1.043841    1.109963    1.041536
C      0.471928    1.838957   -0.190785
C     -0.624288    1.078200   -0.961501
C     -1.916827    0.868464   -0.155999
O     -2.967612    0.549458   -1.041531
C     -3.559059   -0.600673   -0.529815
C     -2.569933   -1.188432    0.426468
O     -1.733333   -0.145258    0.807577
H      4.371484   -3.624327   -0.501709
H      2.459278    0.055915   -1.229012
H      3.576836    0.472231    0.130583
H      0.842140   -0.970312    0.385901
H      1.985291   -0.700861    1.731368
H      0.255727    1.021843    1.818231
H      1.840894    1.747631    1.482482
H      0.062539    2.817984    0.140866
H      1.300953    2.073311   -0.891852
H     -0.243216    0.105118   -1.336413
H     -0.872446    1.684677   -1.860099
H     -2.181883    1.813105    0.367172
H     -3.788557   -1.310484   -1.352947
H     -4.498649   -0.326659   -0.001959
H     -3.079159   -1.614547    1.316999
H     -1.966180   -1.978839   -0.070973
