21

C      0.088498   -1.680480    0.092088
C      1.381819   -0.838945    0.063969
C      1.070394    0.677518    0.162016
C     -0.311953    0.966885   -0.452139
C     -1.414592    0.113554    0.248151
O     -0.902922   -1.054534    0.883814
N     -2.460256   -0.256130   -0.706341
O     -0.617210    2.339816   -0.416079
O      1.082441    1.080887    1.508971
O      2.077068   -1.115108   -1.124662
H     -0.291105   -1.865287   -0.939812
H      0.314018   -2.676974    0.527625
H      2.009885   -1.142464    0.935116
H      1.833981    1.261786   -0.404319
H     -0.259983    0.671497   -1.524411
H     -1.877857    0.729114    1.051773
H     -3.190128   -0.800728   -0.191916
H     -2.925303    0.620313   -1.038066
H     -0.656195    2.620633    0.534917
H      2.035428    1.165623    1.774608
H      3.013972   -0.816976   -0.985306
