28

C      3.882757   -0.041234   -0.530197
C      2.398691   -0.195877   -0.199636
N      1.648275    0.942479   -0.745651
C      0.195481    0.707778   -0.739754
C     -0.404332    0.746451    0.676962
N     -1.872876    0.730060    0.609841
C     -2.394821   -0.643694    0.582399
C     -3.903718   -0.637104    0.329621
N     -4.199434   -0.122573   -1.004719
N      4.633953   -1.187110   -0.027501
H      4.005447    0.020757   -1.633933
H      4.276209    0.896791   -0.077766
H      2.277054   -0.243895    0.904991
H      2.037313   -1.149898   -0.644762
H      1.865077    1.798486   -0.182345
H     -0.038806   -0.257772   -1.237564
H     -0.284332    1.505246   -1.347373
H     -0.021108   -0.097667    1.292543
H     -0.078534    1.689095    1.170694
H     -2.236724    1.187464    1.479237
H     -2.196853   -1.146324    1.556101
H     -1.905230   -1.235694   -0.221272
H     -4.420248   -0.023777    1.101682
H     -4.280556   -1.680332    0.409161
H     -4.034003    0.910232   -1.003491
H     -5.222220   -0.255860   -1.176860
H      4.648273   -1.135848    1.017326
H      5.625264   -1.080181   -0.342785
