32

C      3.071368    0.449573   -0.498746
C      2.443540   -0.467617    0.563466
C      1.618336   -1.604002   -0.052978
C      0.310858   -1.103027   -0.674078
C     -0.573231   -0.309374    0.330166
C      0.263327    0.831337    0.999276
C      1.594521    0.308944    1.579388
O     -0.457216    1.398162    2.062931
C     -1.907891    0.180095   -0.374686
C     -2.767272   -1.038092   -0.783790
C     -2.789926    1.056004    0.548530
O     -1.614783    0.896106   -1.552711
H      3.709728   -0.146472   -1.184955
H      3.713538    1.211695   -0.008357
H      2.302131    0.974539   -1.100186
H      3.286417   -0.934039    1.120756
H      1.378714   -2.349630    0.737408
H      2.218083   -2.129307   -0.828125
H      0.539953   -0.480735   -1.564765
H     -0.227122   -2.003995   -1.030556
H     -0.859996   -1.013645    1.144255
H      0.488622    1.613076    0.240013
H      1.371950   -0.361452    2.439648
H      2.184514    1.162680    1.979685
H     -0.071187    2.298071    2.229193
H     -3.762833   -0.714087   -1.157021
H     -2.302458   -1.602805   -1.616843
H     -2.924065   -1.721069    0.078692
H     -3.784143    1.240839    0.087576
H     -2.947435    0.557320    1.529029
H     -2.341231    2.058078    0.706646
H     -1.164813    1.742830   -1.300561
