23

C      0.061759   -1.410787   -0.604939
C      1.578915   -1.643479   -0.597387
C      2.328131   -0.478843   -1.187811
O      2.375103   -0.356835   -2.441272
C      2.979709    0.534175   -0.333123
O      2.922273    0.437358    0.921214
O      3.662792    1.610233   -0.895565
C     -0.364772   -0.308662    0.367838
N     -1.820896   -0.204876    0.377750
C     -2.509788    0.634233    1.095819
N     -1.874235    1.569851    1.977095
N     -3.933950    0.620204    1.001113
H     -0.438611   -2.359504   -0.311252
H     -0.275692   -1.154515   -1.633498
H      1.926646   -1.859380    0.435907
H      1.800443   -2.547904   -1.204471
H      3.735253    1.731137   -1.898520
H     -0.003836   -0.557040    1.390105
H      0.070200    0.661956    0.045151
H     -0.837821    1.622625    2.084548
H     -2.454481    2.230408    2.539921
H     -4.510034    1.282671    1.566071
H     -4.417107   -0.053025    0.365384
