29

C     -3.102396   -2.051577    0.682860
C     -2.670920   -0.662515    0.288799
C     -3.644344    0.321564    0.073431
C     -3.253086    1.611194   -0.289784
O     -4.123828    2.499411   -0.483392
O     -1.968461    1.911513   -0.433970
C     -0.993054    1.026392   -0.246496
C     -1.309832   -0.317711    0.131091
C     -0.264268   -1.250572    0.338052
C      1.044690   -0.814884    0.167809
C      2.235641   -1.489011    0.310522
C      3.203965   -0.535290    0.018471
O      2.646818    0.623693   -0.280326
C      1.346662    0.469809   -0.194134
C      0.353639    1.425449   -0.422991
C      0.705770    2.838814   -0.791287
C      4.676028   -0.773689    0.026249
H     -2.676458   -2.310102    1.675072
H     -4.208001   -2.134762    0.752031
H     -2.750862   -2.783528   -0.074391
H     -4.697720    0.092787    0.186537
H     -0.451037   -2.276675    0.626174
H      2.384380   -2.524432    0.588179
H      0.058934    3.188265   -1.623499
H      0.555017    3.498269    0.088747
H      1.762633    2.919403   -1.122655
H      5.215956    0.178380   -0.159162
H      4.939392   -1.501521   -0.769206
H      4.984743   -1.178673    1.012592
