20

C     -3.271829   -0.129634    0.644056
C     -1.962203   -0.283695    0.860177
C     -0.935553    0.132663   -0.171779
C      0.451546   -0.427598    0.193443
C      1.486195   -0.153968   -0.905327
C      2.811448   -0.739249   -0.532694
O      3.100826   -1.916961   -0.875033
O      3.706668    0.003391    0.230705
N     -0.875250    1.593191   -0.282799
H     -3.987067   -0.445515    1.396518
H     -3.639558    0.304641   -0.280539
H     -1.639361   -0.739535    1.792604
H     -1.233460   -0.295156   -1.155909
H      0.797035    0.024161    1.150366
H      0.370209   -1.528146    0.340548
H      1.144388   -0.596906   -1.866350
H      1.607006    0.940844   -1.051759
H      4.601373   -0.384311    0.505219
H     -1.784951    1.944382   -0.660740
H     -0.747465    2.008895    0.669292
