31

C     -2.956089    1.385924    1.059373
C     -2.889188    0.447731   -0.158485
C     -2.669526   -0.998625    0.308478
C     -1.831203    0.872828   -1.219383
C     -0.434491    1.043032   -0.646058
O     -0.119456    2.152082   -0.137186
C      0.555490   -0.063780   -0.636799
C      0.425799   -1.318528   -1.238362
N      1.527147   -2.069749   -1.020724
C      2.357657   -1.311875   -0.288295
C      3.620220   -1.668463    0.183564
C      4.329964   -0.723865    0.944216
C      3.767949    0.541532    1.215190
C      2.491598    0.875314    0.727286
C      1.806168   -0.080587   -0.030725
O     -2.239378    2.032912   -1.905032
H     -2.000709    1.374980    1.625141
H     -3.187015    2.425653    0.751313
H     -3.766774    1.057520    1.744416
H     -3.885173    0.478275   -0.654064
H     -2.661949   -1.689276   -0.561104
H     -3.494925   -1.311763    0.982969
H     -1.709861   -1.095673    0.858837
H     -1.800658    0.079314   -1.992503
H     -0.422124   -1.673975   -1.806029
H      1.693582   -3.044786   -1.355637
H      4.041789   -2.642775   -0.027413
H      5.312532   -0.969327    1.325664
H      4.322551    1.260404    1.804204
H      2.069372    1.845360    0.945094
H     -2.253300    2.790186   -1.265830
