49

C     -1.356581   -0.672896    2.432949
C     -1.402197   -1.501852    1.185353
C     -1.867514   -1.105540   -0.027566
C     -2.450187    0.260680   -0.394386
C     -3.970766    0.140865   -0.375195
C     -4.509663   -1.009490   -0.841491
O     -3.714302   -2.123792   -1.182692
C     -2.286299   -2.175669   -1.013260
O     -1.624561   -1.994898   -2.240693
C     -4.873860    1.269388   -0.026229
O     -6.017439    1.343669   -0.556636
O     -4.484184    2.229494    0.911496
C     -5.311638    3.325587    1.281422
C     -1.823083    1.515838    0.260900
C     -0.329278    1.559820    0.105329
O      0.366612    2.160111    0.969175
O      0.276208    0.981906   -1.016912
C      1.681155    0.771506   -1.125095
C      2.107999   -0.400780   -0.238616
C      3.581995   -0.666302   -0.381956
C      4.505493    0.013979    0.427882
C      5.881699   -0.208302    0.274772
C      6.339816   -1.107122   -0.697476
C      5.420372   -1.777382   -1.515853
C      4.049273   -1.554730   -1.362865
O      7.708040   -1.326666   -0.846202
O      6.798644    0.461433    1.082952
H     -1.096861   -1.324048    3.293844
H     -0.572154    0.103743    2.364249
H     -2.353424   -0.230622    2.638319
H     -1.126800   -2.544860    1.318634
H     -2.216994    0.413071   -1.471585
H     -5.583168   -1.112494   -0.937976
H     -2.025577   -3.192097   -0.647584
H     -2.214559   -1.464234   -2.836500
H     -5.531810    3.952595    0.391610
H     -6.260060    2.953855    1.723795
H     -4.781409    3.943807    2.034487
H     -2.221104    2.419886   -0.248215
H     -2.098717    1.602578    1.328805
H      2.231032    1.697319   -0.846274
H      1.917670    0.534373   -2.184407
H      1.527533   -1.306393   -0.521655
H      1.867505   -0.176948    0.823377
H      4.156091    0.716171    1.175132
H      5.767731   -2.468733   -2.273047
H      3.352014   -2.073597   -2.009105
H      8.069131   -1.969870   -1.541032
H      6.498177    1.117644    1.794272
