18

C      1.214011    0.227963   -0.247357
C      0.003147   -0.232826    0.561147
N     -1.235157   -0.046702   -0.194152
C      0.832579   -0.218606   -0.079549
O      1.179853   -1.418386   -0.239163
C     -0.614534    0.134969    0.038371
F     -1.365849   -0.658462   -0.809702
F     -0.805747    1.462132   -0.300028
F     -1.031328   -0.066993    1.340461
O      1.805026    0.765347    0.049610
H      2.138985    0.076048    0.347843
H      1.294077   -0.358513   -1.187147
H      1.122358    1.306719   -0.495261
H      0.124346   -1.307982    0.819301
H     -0.046534    0.349118    1.507808
H     -1.367880    0.965392   -0.422565
H     -1.205631   -0.608014   -1.076297
H     -2.041723   -0.371203    0.386680
