32

C      3.753533   -0.068524   -0.547435
C      2.287346    0.282240   -0.247056
C      2.232921    1.274952    0.925951
C      1.468034   -1.008415    0.035112
C     -0.020683   -0.757325    0.378060
C     -0.790856   -0.021379   -0.739228
C     -2.329807    0.012806   -0.547835
C     -2.957247   -1.379746   -0.713686
C     -2.776848    0.649277    0.786453
C     -2.314772    2.069158    0.914509
O     -1.417306    2.372435    1.743718
O     -2.866482    3.055539    0.106824
O      1.551001   -1.865158   -1.077032
H      4.218915   -0.584011    0.320197
H      4.333469    0.853030   -0.768655
H      3.823197   -0.729046   -1.437398
H      1.879792    0.786331   -1.150082
H      2.916242    2.131235    0.741024
H      1.212921    1.694607    1.038308
H      2.531600    0.778882    1.874223
H      1.930187   -1.512723    0.917328
H     -0.091662   -0.189394    1.328219
H     -0.489310   -1.744955    0.566939
H     -0.568784   -0.497381   -1.719044
H     -0.424150    1.024622   -0.805078
H     -2.739907    0.639585   -1.371801
H     -2.714849   -2.037606    0.146543
H     -2.599491   -1.858970   -1.649761
H     -4.062786   -1.289702   -0.776941
H     -2.414243    0.048595    1.648283
H     -3.887273    0.649553    0.837199
H      1.327296   -2.778513   -0.757860
