38

C     -0.792700   -2.707699   -0.170561
C     -0.813163   -1.446711    0.714625
C     -2.249333   -1.126976    1.129710
C     -2.800445   -0.234856    0.030400
C     -1.603573    0.541551   -0.533921
C     -0.324432   -0.141651    0.009359
C      0.779979   -0.300568   -1.068307
C      2.113008    0.032593   -0.383383
C      1.744493    1.097629    0.661410
C      0.270445    0.865119    1.027796
C     -0.547892    2.097991    0.862407
C     -1.544006    1.929469    0.012451
C     -2.499609    2.984505   -0.359313
O     -2.413186    4.141496    0.131321
C      2.707277   -1.218751    0.299457
C      3.135540    0.578873   -1.400789
H     -1.330455   -3.540435    0.330808
H      0.250202   -3.054110   -0.325323
H     -1.274331   -2.514662   -1.152952
H     -0.216624   -1.674149    1.624616
H     -2.237902   -0.559479    2.086886
H     -2.878979   -2.032570    1.271410
H     -3.605642    0.425550    0.421490
H     -3.234622   -0.871985   -0.771266
H     -1.651916    0.564130   -1.645346
H      0.605293    0.446092   -1.875424
H      0.806584   -1.282564   -1.577943
H      1.885399    2.119211    0.239426
H      2.388376    1.029108    1.566118
H      0.186797    0.519625    2.081809
H     -0.345849    3.025991    1.382949
H     -3.289770    2.765690   -1.065276
H      2.036296   -1.605932    1.091538
H      3.682313   -0.975161    0.773805
H      2.875350   -2.026724   -0.444701
H      2.743833    1.482718   -1.915597
H      4.081538    0.856641   -0.887995
H      3.361709   -0.189000   -2.171698
