43

C      4.786925    0.673128   -1.845980
C      4.457079   -0.785402   -1.530835
C      4.961749   -1.223645   -0.145505
C      4.189735   -0.593251    1.021838
N      2.788749   -1.014425    1.007020
C      1.711343   -0.138166    0.642061
O      1.939167    1.075988    0.385861
C      0.313016   -0.681285    0.501161
C     -0.013610   -0.910968   -0.977804
O     -1.288756   -1.478250   -1.100597
N     -0.654879    0.251088    1.088698
C     -1.810028   -0.190224    1.817789
O     -1.926108   -1.399319    2.158918
C     -2.922199    0.779883    2.110648
C     -3.789788    0.923973    0.884477
C     -3.664464    2.054065    0.056867
C     -4.435294    2.168161   -1.104157
C     -5.329286    1.153312   -1.454663
C     -5.451597    0.020057   -0.646846
C     -4.683230   -0.098847    0.515154
O     -3.699430    0.336145    3.193835
H      5.876834    0.857128   -1.736952
H      4.494010    0.899007   -2.892918
H      4.228363    1.358447   -1.176624
H      3.361864   -0.948554   -1.617476
H      4.947166   -1.423674   -2.297568
H      4.875621   -2.329681   -0.070901
H      6.040329   -0.972623   -0.046591
H      4.649362   -0.935779    1.973523
H      4.283168    0.512500    1.003510
H      2.582258   -2.023081    1.186121
H      0.263614   -1.659479    1.027581
H      0.020787    0.057899   -1.526510
H      0.740325   -1.600443   -1.420844
H     -1.453143   -1.578789   -2.074058
H     -0.614695    1.255821    0.801510
H     -2.475865    1.768316    2.370580
H     -2.967594    2.844461    0.306653
H     -4.335977    3.042039   -1.734984
H     -5.923463    1.242756   -2.354874
H     -6.138681   -0.769112   -0.923595
H     -4.779535   -0.989536    1.123562
H     -3.153843    0.470362    4.012926
