50

C     -5.510988   -0.139742    0.624609
C     -4.062861   -0.125555    1.103820
C     -3.804096   -1.244659    2.121453
C     -2.371046   -1.210626    2.664271
N     -1.408957   -1.536327    1.611973
C     -0.662323   -0.536526    0.903274
O     -0.730417    0.674483    1.251425
C      0.146171   -0.923337   -0.308957
C     -0.741999   -0.892180   -1.570955
O     -1.216176    0.428285   -1.766196
C     -2.272774    0.430501   -2.701423
O      0.037613   -1.277397   -2.694567
C     -0.196188   -2.628399   -3.026168
N      1.308064   -0.036891   -0.453723
C      2.408222   -0.067946    0.469083
O      2.484881   -0.994520    1.321515
C      3.454005    0.981652    0.428409
N      4.693452    0.709581    0.711310
O      5.123200   -0.560587    1.027484
C      6.487208   -0.800501    1.328876
C      3.092187    2.372310    0.091438
C      3.977370    3.412105   -0.127214
C      3.197612    4.516258   -0.395627
C      1.888372    4.087388   -0.321960
O      1.858177    2.808043   -0.028737
H     -5.745992   -1.109794    0.136837
H     -6.202306    0.019054    1.479479
H     -5.665600    0.675262   -0.113661
H     -3.845731    0.861741    1.566580
H     -3.400246   -0.255890    0.222851
H     -3.995786   -2.233854    1.650440
H     -4.505174   -1.129734    2.976951
H     -2.152500   -0.218916    3.116330
H     -2.278947   -1.966051    3.473814
H     -1.365275   -2.526193    1.279593
H      0.512746   -1.964609   -0.173755
H     -1.606652   -1.580854   -1.374329
H     -1.947095    0.025932   -3.685039
H     -3.149417   -0.137629   -2.319433
H     -2.599038    1.478351   -2.861938
H     -1.241153   -2.771477   -3.379615
H      0.483196   -2.912482   -3.855612
H      0.018904   -3.300893   -2.166500
H      1.360673    0.613481   -1.270286
H      6.788632   -0.198405    2.211609
H      7.118489   -0.525882    0.457868
H      6.628578   -1.876939    1.556522
H      5.058414    3.373943   -0.096200
H      3.542427    5.517213   -0.617607
H      1.010141    4.699211   -0.478314
