44

C     -0.499020   -0.992373    3.497578
C      0.431967   -0.036016    2.740951
C      0.878615   -0.592621    1.359902
C     -0.286022   -0.931819    0.375330
C     -1.226835    0.241559   -0.033641
C     -2.117551   -0.154620   -1.250426
C     -2.179410   -1.681692   -1.423700
C     -0.751234   -2.310417   -1.479794
O      0.233658   -1.529540   -0.797683
C     -0.332259   -2.441118   -2.923186
O      0.393977   -1.563152   -3.460760
O     -0.792931   -3.506454   -3.687939
O     -0.805537   -3.595512   -0.908901
O     -1.636587    0.427496   -2.437690
N     -0.472466    1.461690   -0.346328
C     -0.948447    2.774075   -0.017485
O     -2.031705    2.925918    0.609497
C     -0.174073    3.974006   -0.454003
N      1.871110    0.303475    0.750260
C      2.867239   -0.147756   -0.178889
O      3.021097   -1.377751   -0.407799
C      3.771678    0.840872   -0.838909
O     -0.181575    1.218333    2.600959
H     -1.508839   -1.009165    3.037052
H     -0.608746   -0.651408    4.548654
H     -0.079151   -2.020598    3.507697
H      1.356980    0.078606    3.354526
H      1.391759   -1.555822    1.582313
H     -0.903362   -1.684614    0.918453
H     -1.897958    0.429847    0.833509
H     -3.149855    0.221456   -1.056329
H     -2.776369   -1.941430   -2.326781
H     -2.737884   -2.101852   -0.557436
H      0.128101   -3.927480   -0.834010
H     -2.379410    0.399413   -3.095864
H      0.333358    1.390892   -1.008953
H     -0.537323    4.884637    0.067609
H     -0.292769    4.110625   -1.548739
H      0.901819    3.831190   -0.219110
H      1.890044    1.310952    1.029778
H      4.203157    0.410744   -1.768126
H      3.202211    1.757955   -1.101884
H      4.595097    1.108536   -0.144231
H     -0.164548    1.650935    3.494527
