48

C      4.512063   -0.184666    0.277758
C      3.308587    0.713879    0.598877
C      2.941888    1.679762   -0.583141
C      1.392765    1.833722   -0.592359
C      0.955669    2.129974    0.871077
C      1.112172    0.812526    1.680552
N      2.112689   -0.090050    0.992893
C      1.489009   -0.682416   -0.237871
C      0.794552    0.457193   -1.059366
C     -0.721189    0.301895   -0.745406
C     -0.711772   -0.622715    0.490684
C      0.366756   -1.630808    0.183085
C     -0.244472    0.139345    1.707921
N     -1.073231    0.147312    2.705455
C     -2.177231   -0.643718    2.283356
C     -3.287409   -0.985386    3.053774
C     -4.238305   -1.859745    2.499993
C     -4.051161   -2.390274    1.206947
C     -2.917788   -2.041610    0.453595
C     -2.008226   -1.140231    1.009080
O     -1.367296   -0.329700   -1.854276
C     -2.721733   -0.158764   -2.163050
O     -3.447766    0.618910   -1.486031
C     -3.304491   -0.881233   -3.328832
C      3.645295    3.009765   -0.466553
O      4.863851    3.066362   -0.508865
H      5.432621    0.432108    0.205918
H      4.386353   -0.721456   -0.684179
H      4.654135   -0.928681    1.089882
H      3.621357    1.319449    1.482347
H      3.252908    1.234963   -1.555712
H      1.069021    2.648580   -1.276425
H     -0.077144    2.538824    0.913979
H      1.596606    2.918582    1.321096
H      1.443867    1.029177    2.719528
H      2.225781   -1.242884   -0.850083
H      0.985969    0.317304   -2.146889
H     -1.206541    1.280863   -0.542592
H      0.067310   -2.293481   -0.659519
H      0.648696   -2.252040    1.063287
H     -3.407395   -0.598789    4.057380
H     -5.109946   -2.141309    3.076300
H     -4.778430   -3.078755    0.796837
H     -2.753099   -2.469228   -0.526257
H     -3.376100   -0.190745   -4.194595
H     -2.660397   -1.743290   -3.601784
H     -4.317205   -1.258024   -3.073134
H      3.078408    3.929501   -0.361152
