32

C     -2.494138   -0.155455   -2.034394
C     -2.041542   -0.553803   -0.618550
C     -0.726113    0.152026   -0.206881
C      0.493568   -0.364820   -0.995535
C      1.844771    0.256429   -0.561954
C      2.234309    0.030674    0.931533
C      2.219157   -1.457843    1.315525
C      3.626472    0.616121    1.215412
O      1.876468    1.622734   -0.898292
C     -3.163389   -0.305953    0.416319
C     -3.526972    1.143302    0.558666
O     -4.422780    1.647057   -0.168823
O     -2.857815    1.942231    1.477313
H     -2.550665    0.948977   -2.137494
H     -1.789530   -0.550179   -2.794824
H     -3.493645   -0.586941   -2.255358
H     -1.858781   -1.651713   -0.624253
H     -0.831367    1.248031   -0.353666
H     -0.559025   -0.034292    0.874087
H      0.550920   -1.471169   -0.914810
H      0.354071   -0.133392   -2.072552
H      2.622837   -0.242162   -1.181743
H      1.515647    0.564819    1.589634
H      2.856425   -2.048036    0.622611
H      2.597303   -1.594126    2.351295
H      1.184922   -1.858766    1.291578
H      3.641049    1.706657    1.006527
H      4.396477    0.119527    0.586507
H      3.893452    0.475469    2.284734
H      1.320303    2.111975   -0.238259
H     -4.069071   -0.883368    0.128023
H     -2.843318   -0.694015    1.407624
