43

C      5.462474   -2.045871    1.998620
C      4.975806   -2.622779    0.669611
C      3.731903   -1.900442    0.130664
C      4.042177   -0.481644   -0.364976
N      2.864103    0.103112   -1.002359
C      1.737582    0.578934   -0.250551
O      1.753400    0.532857    1.010523
C      0.525131    1.124248   -0.960648
C      0.228981    2.553975   -0.502374
N     -0.635098    0.266722   -0.705148
C     -1.770431    0.231426   -1.582145
O     -1.745755    0.861123   -2.675556
C     -3.012949   -0.518663   -1.160391
C     -3.753520    0.246050   -0.084350
C     -4.183702    1.568888   -0.305422
C     -4.867939    2.266429    0.694408
C     -5.133465    1.652505    1.920653
C     -4.715955    0.339188    2.149285
C     -4.030773   -0.363071    1.152943
N     -3.906472   -0.795727   -2.289481
H      6.289265   -2.673816    2.392355
H      4.639003   -2.038440    2.744031
H      5.847485   -1.014171    1.862199
H      5.797541   -2.581352   -0.078053
H      4.719387   -3.692789    0.827647
H      2.947230   -1.869004    0.916959
H      3.329168   -2.491405   -0.720791
H      4.369255    0.168768    0.473776
H      4.868690   -0.525841   -1.107489
H      2.870650    0.217350   -2.040996
H      0.732114    1.146274   -2.053038
H     -0.024778    2.573725    0.579412
H     -0.629513    2.965906   -1.074044
H      1.112062    3.204231   -0.680694
H     -0.701380   -0.242109    0.206201
H     -2.677714   -1.498302   -0.752350
H     -3.984945    2.061658   -1.248756
H     -5.192440    3.283858    0.518182
H     -5.663430    2.194180    2.693450
H     -4.923622   -0.135705    3.099475
H     -3.716017   -1.380404    1.349248
H     -3.387850   -1.368466   -2.995011
H     -4.185661    0.098599   -2.755017
