35

C     -1.570389   -1.985755    1.590108
C     -0.954935   -1.632256    0.233595
C     -0.782310   -0.096563    0.087698
C     -0.066523    0.235134   -1.237585
C      1.210294   -0.619304   -1.383813
C      0.864724   -2.104800   -1.147163
O      0.301050   -2.284434    0.141268
O      2.034922   -2.870230   -1.248544
N      2.238479   -0.164437   -0.437889
C      2.994819    1.036157   -0.646669
O      2.840305    1.714717   -1.698100
C      3.999099    1.469792    0.370477
O     -0.933138   -0.009965   -2.317638
N     -2.078626    0.590258    0.138884
C     -2.196478    1.980129    0.471659
O     -1.176619    2.651252    0.786900
C     -3.538413    2.636066    0.461630
H     -0.930704   -1.609173    2.416842
H     -2.586637   -1.550293    1.690224
H     -1.657408   -3.089016    1.684813
H     -1.648312   -2.014912   -0.551881
H     -0.148835    0.257201    0.932877
H      0.205830    1.315924   -1.227272
H      1.606157   -0.519595   -2.419398
H      0.156325   -2.448439   -1.939940
H      1.755053   -3.820518   -1.184110
H      2.448397   -0.735257    0.412754
H      4.868631    0.780588    0.348384
H      4.348529    2.502637    0.158450
H      3.540721    1.448272    1.381280
H     -0.558996    0.471442   -3.101282
H     -2.946896    0.068170   -0.119720
H     -3.443725    3.724989    0.659600
H     -4.178790    2.180440    1.245261
H     -4.015599    2.491780   -0.530094
