38

C     -5.474419    0.474266    0.509954
C     -5.879731    0.122122   -0.912672
C     -4.644691    0.969647   -0.662022
N     -3.386657    0.246948   -0.822393
C     -2.254375    0.525136    0.010868
C     -1.043721   -0.136109   -0.162931
C      0.006732    0.154134    0.637991
N     -0.058803    1.082520    1.622489
C     -1.244375    1.739018    1.808568
N     -2.324317    1.458232    1.009018
N     -1.357817    2.721911    2.834656
N      1.061150   -0.591275    0.285838
C      0.601336   -1.320992   -0.766356
N     -0.702082   -1.070226   -1.070043
C      2.421804   -0.533477    0.829999
C      3.376982    0.205194   -0.123244
C      4.507947   -0.788972   -0.445941
C      4.124239   -2.036403    0.273538
C      3.004843   -1.898241    0.962151
C      4.645013   -1.036315   -1.925331
O      3.745510   -1.657451   -2.552225
O      5.747685   -0.551982   -2.623110
H     -6.109602    1.252477    0.982808
H     -5.040906   -0.374909    1.080723
H     -5.692331   -0.938458   -1.185547
H     -6.756988    0.690961   -1.286094
H     -4.683503    2.055718   -0.891014
H     -3.287281   -0.419842   -1.621185
H     -2.258446    3.228806    2.983238
H     -0.541746    2.943198    3.447130
H      1.210126   -2.024237   -1.319328
H      2.419026   -0.047880    1.830882
H      2.847966    0.548659   -1.040802
H      3.794684    1.103745    0.381811
H      5.470273   -0.421229   -0.028162
H      4.704728   -2.953356    0.257987
H      2.571797   -2.690107    1.564557
H      6.479951   -0.031230   -2.155985
