44

C     -5.379589    1.093059    0.657110
C     -4.084796    0.592152    1.295251
C     -4.071030   -0.932736    1.498455
C     -4.076634   -1.733460    0.186732
N     -2.963794   -1.348710   -0.680293
C     -1.601548   -1.690537   -0.387214
O     -1.331979   -2.421322    0.605683
C     -0.484570   -1.128309   -1.227887
C      0.532445   -2.213000   -1.592157
N      0.181600   -0.043316   -0.504338
C      0.906277    0.996184   -1.177916
O      0.867110    1.083248   -2.436327
C      1.763468    1.944859   -0.372569
C      3.021834    1.247503    0.097674
C      3.908042    0.660025   -0.824890
C      5.064056    0.011051   -0.381786
C      5.352074   -0.057449    0.987120
C      4.479363    0.527664    1.909109
C      3.321964    1.177646    1.469665
O      6.499793   -0.704386    1.440186
N      2.106578    3.157987   -1.121169
H     -5.387238    2.203735    0.661434
H     -5.454589    0.752215   -0.396368
H     -6.260904    0.730882    1.228147
H     -3.976058    1.076320    2.289610
H     -3.217715    0.909458    0.676746
H     -4.951015   -1.232878    2.107727
H     -3.166124   -1.201105    2.083846
H     -4.012874   -2.819431    0.414282
H     -5.036586   -1.570397   -0.347582
H     -3.180376   -0.819820   -1.554971
H     -0.918777   -0.733179   -2.172294
H      1.306964   -1.793739   -2.268948
H      1.034690   -2.601145   -0.680273
H      0.027077   -3.052498   -2.115483
H      0.253700   -0.099729    0.537706
H      1.162083    2.256719    0.510349
H      3.700695    0.698178   -1.886922
H      5.733433   -0.440653   -1.102352
H      4.697803    0.477246    2.968474
H      2.659478    1.622099    2.202072
H      7.152320   -1.137358    0.796518
H      1.221880    3.650475   -1.384087
H      2.601469    2.906451   -2.008070
