16

C     -2.595208    0.715201    0.334779
C     -2.107913   -0.653624   -0.031984
C     -0.816391   -0.964484   -0.200927
C      0.287473    0.009970   -0.045061
C      1.572040   -0.336368   -0.222092
C      2.664623    0.649228   -0.062709
O      2.411760    1.844895    0.245126
O      3.992222    0.271569   -0.250444
O      1.899546   -1.645979   -0.562931
H     -3.702511    0.707994    0.413349
H     -2.301576    1.447301   -0.446795
H     -2.173740    1.020574    1.315677
H     -2.847023   -1.434130   -0.167348
H     -0.581209   -1.988309   -0.465872
H      0.049375    1.032386    0.219758
H      4.248532   -0.676225   -0.498515
