27

C     -2.292749    0.986253   -1.247759
C     -2.014376    0.177995    0.027046
C     -0.559215    0.238526    0.413387
C      0.060032   -0.969604    0.374170
C      1.406212   -0.729547    0.272357
C      2.488470   -1.571553    0.034866
C      3.752415   -0.975337   -0.126730
C      3.894366    0.430718   -0.085005
C      2.772749    1.259014    0.110755
C      1.532963    0.648263    0.293950
N      0.325359    1.258764    0.359395
C     -0.859639   -1.990887   -0.051764
O     -0.596610   -3.199873   -0.283390
C     -2.145281   -1.314746   -0.237349
O     -3.207492   -1.892651   -0.590848
C     -2.907513    0.621884    1.190852
H     -2.124807    2.069004   -1.064037
H     -3.345859    0.843401   -1.571909
H     -1.622415    0.659970   -2.072614
H      2.364130   -2.645117   -0.023109
H      4.620753   -1.597720   -0.299269
H      4.870725    0.875555   -0.226458
H      2.868703    2.337005    0.100484
H      0.119005    2.276447    0.249674
H     -3.978795    0.496874    0.923941
H     -2.697634    0.016057    2.099174
H     -2.723501    1.691307    1.430191
