31

C     -5.304988   -0.028908    0.249160
C     -5.297743    1.365471    0.295721
C     -4.108867    2.049702    0.555625
C     -2.914993    1.343307    0.767130
C     -2.911404   -0.068232    0.695109
C     -4.121421   -0.743021    0.451765
C     -1.674085   -0.858299    0.895825
O     -1.739383   -1.947088    1.530457
C     -0.384067   -0.415376    0.323105
C      0.770656   -1.038640    0.598442
C      2.079787   -0.632754    0.030323
C      3.121621   -1.574532    0.000008
C      4.380222   -1.235508   -0.517694
C      4.608792    0.062695   -1.001738
C      3.581249    1.008992   -0.959051
C      2.327184    0.670564   -0.443754
O      5.848553    0.430679   -1.523469
O      5.402158   -2.183137   -0.551462
O     -1.747075    2.041822    1.073496
H     -6.228725   -0.557944    0.053176
H     -6.215752    1.916635    0.137530
H     -4.117787    3.131182    0.604504
H     -4.147141   -1.824858    0.402187
H     -0.400602    0.414309   -0.369319
H      0.756747   -1.910963    1.241844
H      2.954663   -2.578789    0.371217
H      3.757829    2.014320   -1.320269
H      1.569007    1.439906   -0.398169
H      6.624690   -0.218173   -1.575025
H      5.263273   -3.126454   -0.208313
H     -1.732396    3.053095    1.136008
