39

C     -4.716114    2.039673    0.950538
C     -5.047179    0.805566    0.384391
C     -4.184558    0.202200   -0.536167
C     -2.983363    0.834384   -0.899310
C     -2.655824    2.072779   -0.322530
C     -3.521210    2.672567    0.597535
C     -2.034019    0.180857   -1.865969
N     -0.861163   -0.321477   -1.153411
C     -0.744076   -1.480593   -0.476636
C     -1.670613   -2.517990   -0.349128
C     -1.285798   -3.652341    0.387093
C      0.002160   -3.730539    0.960471
C      0.915587   -2.670502    0.813859
C      0.497712   -1.544472    0.100445
C      1.117985   -0.352696   -0.250548
N      0.264948    0.368874   -1.016099
C      2.460805    0.129669    0.109868
C      3.222364   -0.247570    1.203227
C      4.383955    0.491060    1.125681
C      4.252574    1.278025   -0.000371
O      3.101220    1.042639   -0.584605
C      5.272935    2.240399   -0.518323
O      6.143349    1.588137   -1.400963
H     -5.384657    2.504737    1.663424
H     -5.972147    0.315598    0.659780
H     -4.455465   -0.754172   -0.964924
H     -1.730249    2.570744   -0.583958
H     -3.264394    3.627090    1.038429
H     -1.715212    0.925284   -2.627697
H     -2.527415   -0.648717   -2.417159
H     -2.648941   -2.465816   -0.805891
H     -1.977181   -4.476670    0.503942
H      0.292564   -4.617203    1.508877
H      1.910072   -2.754590    1.223704
H      2.959754   -0.934873    1.993411
H      5.217531    0.468025    1.815167
H      5.838360    2.696828    0.325601
H      4.756544    3.058061   -1.063242
H      6.769158    1.057025   -0.841954
