38

C     -4.041239    1.654977   -1.650728
C     -3.297381    1.734658   -0.322082
N     -2.916728    0.391218    0.133344
C     -1.684624   -0.176985   -0.344094
C     -1.702573   -1.299379   -1.184140
C     -0.506083   -1.844425   -1.653657
C      0.716130   -1.273774   -1.289473
C      0.752392   -0.149608   -0.447079
C     -0.456880    0.397997    0.016100
C      2.046888    0.463933   -0.064953
C      2.223474    1.861534   -0.096446
C      3.471015    2.402999    0.268703
N      4.493769    1.588026    0.655238
C      4.285322    0.249484    0.675268
C      5.149466   -0.744667    1.055647
C      4.405362   -1.909573    0.921095
N      3.159370   -1.606245    0.480463
N      3.110173   -0.290746    0.329846
C      6.505002   -0.615079    1.515665
N      7.596300   -0.510558    1.885999
C     -3.829805   -0.392841    0.931930
O     -5.026081   -0.019218    1.072393
C     -3.392040   -1.663874    1.596201
H     -4.324445    2.676159   -1.981925
H     -4.963011    1.045994   -1.539766
H     -3.391326    1.194769   -2.424955
H     -3.940109    2.232693    0.436005
H     -2.394834    2.370712   -0.450574
H     -2.644667   -1.742018   -1.481937
H     -0.525972   -2.706243   -2.308128
H      1.630881   -1.697527   -1.684109
H     -0.447083    1.256540    0.676603
H      1.422976    2.519805   -0.410100
H      3.620712    3.474056    0.244132
H      4.745285   -2.913577    1.137968
H     -3.429172   -2.499384    0.867251
H     -2.357939   -1.556960    1.985523
H     -4.062526   -1.902873    2.448773
