36

C     -2.879599   -0.282343   -2.685834
C     -1.877856   -0.793942   -1.640083
C     -2.272030   -2.209202   -1.180763
C     -1.717537    0.214197   -0.465415
C     -2.953326    0.288070    0.400735
O     -3.113189   -0.525898    1.349106
O     -3.939484    1.237261    0.146917
N     -0.539681   -0.106197    0.352439
C     -0.025689    0.809663    1.335793
O     -0.565574    1.940673    1.479153
C      1.181252    0.469601    2.186043
C      2.518423    0.784407    1.480505
C      2.729707    0.056742    0.143255
C      4.070437    0.403666   -0.430437
O      5.061481   -0.340258   -0.202624
N      4.241483    1.595756   -1.196823
N      1.144548   -0.906092    2.693573
H     -3.902683   -0.220953   -2.257976
H     -2.579721    0.723874   -3.048422
H     -2.902719   -0.968361   -3.559449
H     -0.891970   -0.871382   -2.151146
H     -1.573703   -2.587716   -0.406567
H     -2.234682   -2.908824   -2.042892
H     -3.303397   -2.221525   -0.769034
H     -1.545493    1.219322   -0.911057
H     -3.847495    1.901464   -0.612253
H     -0.008575   -0.981980    0.155740
H      1.146391    1.135142    3.078150
H      3.349930    0.523131    2.172194
H      2.571454    1.881659    1.302082
H      2.673261   -1.042826    0.283633
H      1.947117    0.356585   -0.584794
H      5.178910    1.843359   -1.584241
H      3.435013    2.234873   -1.374197
H      1.187465   -1.596454    1.912912
H      0.237531   -1.055491    3.193290
