15

C     -2.011557   -1.194294   -0.773794
N     -0.972399   -0.315262   -0.256157
C     -1.117819    0.991209    0.033376
C      0.106559    1.488365    0.426405
C      0.963947    0.404879    0.335531
N      0.288362   -0.680761   -0.089970
C      2.403159    0.412893    0.639107
O      2.958062    1.474734    1.026735
O      3.167531   -0.743256    0.504027
H     -2.109748   -1.047845   -1.869693
H     -2.982265   -0.966635   -0.284199
H     -1.749766   -2.254104   -0.569587
H     -2.044105    1.545997   -0.043529
H      0.341227    2.501168    0.726371
H      2.758813   -1.617089    0.195377
