45

C     -3.926063   -1.521639   -1.662700
C     -3.857022   -1.128788   -0.172262
C     -3.462431    0.361873   -0.007730
C     -4.547521    1.331116   -0.497508
N     -4.193705    2.700725   -0.137536
C     -2.897465   -2.043446    0.654795
C     -1.492963   -2.071152    0.096767
O     -1.189774   -2.898688   -0.806418
N     -0.516592   -1.128898    0.560939
C      0.826448   -1.077204   -0.015271
C      1.654829    0.038113    0.630906
C      3.062768    0.101539    0.026844
C      3.894226    1.212606    0.684882
C      5.272322    1.396653    0.011517
C      5.965898    2.595892    0.589397
O      6.120896    3.633581   -0.108877
O      6.419866    2.572215    1.905233
N      6.131183    0.220698    0.177154
N     -3.416965   -3.407911    0.804431
H     -4.179076   -2.592579   -1.787391
H     -2.962018   -1.315646   -2.173867
H     -4.725752   -0.951554   -2.177619
H     -4.877423   -1.253723    0.253890
H     -3.282900    0.575102    1.069151
H     -2.515424    0.567393   -0.553419
H     -5.518676    1.072805   -0.021253
H     -4.662945    1.260266   -1.600862
H     -4.985090    3.320494   -0.426007
H     -3.367613    2.986950   -0.712193
H     -2.835026   -1.624547    1.683762
H     -0.785384   -0.455660    1.314522
H      1.329934   -2.055297    0.146358
H      0.746347   -0.891587   -1.108772
H      1.139343    1.011144    0.473049
H      1.729465   -0.150256    1.724660
H      3.563291   -0.878680    0.180315
H      2.984696    0.295088   -1.065685
H      3.331624    2.169848    0.606058
H      4.026513    0.985624    1.766119
H      5.117634    1.574769   -1.077252
H      6.882030    3.377627    2.309968
H      5.791121   -0.543663   -0.449704
H      6.076911   -0.125070    1.163306
H     -3.493941   -3.880215   -0.123583
H     -4.375575   -3.365919    1.220683
