26

C     -2.356511    1.706893   -0.408589
C     -1.084966    1.106142    0.116865
C     -0.295157    1.760718    0.950132
C      0.832418    0.934935    1.296084
O      1.730002    1.284575    2.107468
C      0.741443   -0.408494    0.650968
C     -0.542326   -0.262903   -0.255462
C     -0.257869   -0.291058   -1.775470
C     -1.568567   -1.358024    0.096420
C      2.050457   -0.799745   -0.075823
C      3.166645   -1.066975    0.888932
O      3.160804   -2.112479    1.590824
O      4.204938   -0.153921    1.024294
H     -3.038412    1.935770    0.437177
H     -2.874718    1.011945   -1.099385
H     -2.128246    2.644771   -0.957294
H     -0.482574    2.756621    1.331647
H      0.556661   -1.151139    1.460379
H      0.458032    0.509143   -2.060020
H      0.148337   -1.275813   -2.086799
H     -1.191281   -0.127330   -2.354405
H     -1.870316   -1.284123    1.163814
H     -2.481683   -1.270047   -0.529495
H     -1.126872   -2.362999   -0.075937
H      1.886796   -1.730116   -0.659239
H      2.362963    0.003651   -0.777088
