39

C     -3.759675   -1.294571    1.036517
C     -2.783233   -0.656856    0.041752
C     -1.514400   -0.144131    0.765654
C     -0.327252    0.133125   -0.209799
C      0.392588    1.497755    0.161089
C      1.759879    1.693781   -0.560686
C      2.573758    0.449215   -0.474084
C      3.928156    0.215102   -0.688270
N      4.171100   -1.122466   -0.673538
C      2.974701   -1.711022   -0.477390
C      2.661286   -3.067882   -0.458353
C      1.300603   -3.418605   -0.321719
C      0.300365   -2.416890   -0.218962
C      0.656110   -1.044402   -0.224460
C      2.002281   -0.769641   -0.361348
N     -0.459060    2.662259   -0.167855
C     -0.332318    3.725806    0.831780
C     -3.467210    0.450548   -0.718254
O     -3.961589    1.401529   -0.132224
H     -3.285431   -2.171056    1.527561
H     -4.057711   -0.563951    1.819241
H     -4.670702   -1.647697    0.507140
H     -2.499959   -1.439319   -0.693042
H     -1.196760   -0.880973    1.536637
H     -1.782069    0.763515    1.349497
H     -0.708545    0.240928   -1.249433
H      0.605711    1.456071    1.256386
H      2.322257    2.532687   -0.098820
H      1.587663    1.927481   -1.633510
H      4.681119    0.968775   -0.877355
H      5.089449   -1.594592   -0.828369
H      3.428228   -3.824238   -0.562489
H      1.016125   -4.462685   -0.311551
H     -0.730451   -2.724770   -0.134564
H     -1.468413    2.400404   -0.215474
H      0.724688    4.054347    0.921975
H     -0.703831    3.380016    1.821500
H     -0.937651    4.601172    0.515283
H     -3.529807    0.401232   -1.800463
