22

H      0.000000    0.000000    0.000000
C      0.496493    2.460446    0.441298
C     -0.416875    1.292906    0.652138
N     -1.328853    1.260449    1.648652
C     -1.950112    0.075068    1.500547
C     -1.411047   -0.586319    0.419549
N     -0.441295    0.183250   -0.126945
C      0.451982   -0.121662   -1.252714
C      1.573799   -1.066486   -0.820773
O      2.377911   -0.446513    0.143535
N     -1.826083   -1.886273   -0.032214
O     -1.366464   -2.391068   -1.075551
O     -2.782415   -2.578322    0.673961
H      0.358155    3.207028    1.251476
H      0.266855    2.943141   -0.531247
H      1.552957    2.122686    0.448167
H     -2.745353   -0.279041    2.142962
H     -0.123865   -0.567898   -2.089054
H      0.899669    0.810816   -1.657339
H      2.189876   -1.323028   -1.711071
H      1.143373   -2.003869   -0.405630
H      3.081291   -1.105310    0.380255
