37

C      3.823619    1.575043    0.617717
C      2.787867    0.734479   -0.135318
C      1.399227    1.382667   -0.040435
C      0.336460    0.379493   -0.488198
C      0.399201   -0.850043    0.487217
C     -0.707794   -1.905529    0.145841
C     -2.027839   -1.211601    0.008891
C     -3.337354   -1.679882    0.049265
N     -4.198248   -0.663246   -0.228337
C     -3.429555    0.420927   -0.454936
C     -3.812073    1.704332   -0.840391
C     -2.784698    2.641542   -1.094114
C     -1.418492    2.275292   -0.963998
C     -1.070152    0.970405   -0.538208
C     -2.119128    0.099615   -0.318581
N      1.750509   -1.432179    0.540716
C      2.814747   -0.699539    0.361689
C      1.920050   -2.804454    1.009327
H      3.822572    2.617937    0.234519
H      3.597310    1.590881    1.705776
H      4.841319    1.154417    0.469489
H      3.083968    0.711673   -1.207549
H      1.394957    2.278830   -0.695346
H      1.187173    1.711295    1.002037
H      0.582174    0.031514   -1.516911
H      0.166009   -0.474831    1.510875
H     -0.790786   -2.663848    0.952801
H     -0.467090   -2.411045   -0.813698
H     -3.641872   -2.698551    0.249857
H     -5.239229   -0.721589   -0.284611
H     -4.854598    1.967830   -0.962004
H     -3.042264    3.642566   -1.414612
H     -0.659837    3.003010   -1.212279
H      3.803144   -1.145682    0.454351
H      1.481192   -3.513868    0.277118
H      2.988082   -3.087704    1.138107
H      1.421428   -2.930158    1.993934
