23

C     -1.865363    1.079379    0.121274
C     -0.393219    0.889720   -0.269366
C      0.147335   -0.454528    0.186802
C      1.468195   -0.710847    0.289384
C      2.562910    0.219933   -0.082892
O      2.355613    1.170284   -0.884007
C      3.927731    0.010944    0.440100
O      4.160641   -0.926248    1.248766
O      4.975853    0.844987    0.056178
C     -0.808918   -1.549468    0.492423
C     -2.124099   -1.403746    0.306477
C     -2.698607   -0.144444   -0.289832
O     -4.042108    0.016976    0.088082
H     -1.934787    1.230769    1.221665
H     -2.265251    1.988635   -0.377662
H     -0.295177    0.963053   -1.374208
H      0.182389    1.716426    0.199587
H      1.771734   -1.680536    0.667814
H      4.838935    1.613020   -0.589714
H     -0.444808   -2.490631    0.888091
H     -2.787515   -2.223634    0.553795
H     -2.661721   -0.241385   -1.396605
H     -4.069762    0.081342    1.079197
