37

C     -1.366212   -1.590097    1.508641
C     -1.872123   -0.284680    0.866189
C     -2.639077   -0.533193   -0.471178
C     -2.508247    0.706438   -1.374716
C     -1.014587    1.061214   -1.628826
C     -0.117808    0.523182   -0.487313
O     -0.798300    0.646353    0.750935
O      1.090466    1.261254   -0.439009
C      2.068736    0.604256    0.352620
C      3.032994   -0.165709   -0.566345
C      3.998088   -0.999368    0.220613
O      5.170736   -0.586069    0.425321
O      3.585181   -2.215006    0.756683
C      2.818658    1.643998    1.142075
O      3.141735    2.734924    0.601193
O      3.200986    1.398228    2.458300
N     -0.845213    2.509423   -1.788258
O     -3.194046    0.524325   -2.589051
O     -3.999475   -0.775683   -0.214895
O     -2.435992   -2.423302    1.865182
H     -0.710609   -2.138986    0.800900
H     -0.754247   -1.352367    2.408693
H     -2.592096    0.172273    1.580638
H     -2.190878   -1.401430   -1.012721
H     -2.998122    1.550735   -0.839653
H     -0.671790    0.572726   -2.568696
H      0.107973   -0.547764   -0.715262
H      1.617914   -0.111500    1.083226
H      2.452449   -0.841783   -1.229316
H      3.586986    0.542967   -1.221045
H      4.220176   -2.783768    1.303839
H      2.980059    0.522711    2.917241
H     -1.453713    2.834297   -2.574699
H     -1.165079    2.995581   -0.918581
H     -2.808229   -0.273702   -3.036684
H     -4.095143   -1.749057   -0.047994
H     -2.842150   -2.031420    2.681951
