45

C     -1.033127   -0.381682   -2.249238
C     -1.751669    0.378188   -1.126574
C     -3.286634    0.322220   -1.295455
C     -3.840504   -0.638838   -0.203469
C     -2.660882   -0.848138    0.699072
C     -2.633019   -1.559102    1.908718
C     -1.431072   -1.642863    2.620931
C     -0.270287   -1.031777    2.125623
C     -0.292992   -0.344225    0.896004
C     -1.513735   -0.266762    0.197983
N      0.883632    0.313193    0.394379
C      2.205230   -0.239768    0.508002
O      2.352364   -1.454369    0.810179
C      3.394612    0.597843    0.240778
C      3.414459    1.964251    0.028245
N      4.691907    2.343229   -0.159075
N      5.494999    1.293651   -0.098306
C      4.730688    0.212552    0.154691
C      5.295110   -1.166720    0.299905
F      5.054081   -1.643491    1.575018
F      4.723307   -2.012997   -0.632051
C      5.141606    3.691731   -0.474964
F     -3.745390   -2.162201    2.395764
C     -4.280134   -1.977405   -0.825620
C     -5.015708    0.013932    0.550110
H     -1.271544    0.080990   -3.230337
H      0.066685   -0.336172   -2.108580
H     -1.345895   -1.447466   -2.269175
H     -1.408477    1.435788   -1.109569
H     -3.686077    1.351839   -1.154614
H     -3.586006    0.009023   -2.320926
H     -1.398270   -2.174678    3.563101
H      0.637771   -1.081187    2.712021
H      0.759047    1.189322   -0.158408
H      2.567559    2.637868    0.015716
H      6.392440   -1.143832    0.131460
H      5.015335    3.880086   -1.561564
H      6.212921    3.808123   -0.206610
H      4.548355    4.435637    0.098155
H     -3.434522   -2.458983   -1.361899
H     -4.639866   -2.677494   -0.041979
H     -5.106998   -1.812786   -1.549539
H     -4.680859    0.934735    1.075257
H     -5.821485    0.289402   -0.163845
H     -5.446957   -0.680667    1.300686
