26

C      3.289578    1.257951    0.426093
C      2.496025    0.005610    0.088269
O      1.392736    0.360524   -0.718833
C      0.542570   -0.754900   -0.919383
C     -0.612313   -0.753019    0.097471
C     -1.380086    0.534018    0.000438
C     -2.263316    0.883535   -1.003513
C     -2.699629    2.152096   -0.688358
C     -2.055733    2.499110    0.482199
O     -1.274938    1.515684    0.866531
O     -1.493878   -1.828915   -0.179094
C     -1.204260   -2.936942    0.645278
H      2.648726    1.973942    0.983338
H      3.651714    1.741689   -0.505857
H      4.163781    0.990408    1.056477
H      3.163703   -0.696610   -0.459866
H      2.166968   -0.464984    1.042381
H      1.083312   -1.730285   -0.887799
H      0.117556   -0.680807   -1.943611
H     -0.187574   -0.797056    1.129395
H     -2.549798    0.290286   -1.861862
H     -3.401861    2.755543   -1.247626
H     -2.165609    3.435104    1.013182
H     -0.144472   -3.258549    0.540868
H     -1.846619   -3.786509    0.335503
H     -1.436581   -2.706924    1.708377
