50

C     -6.432695    1.799762    0.493990
C     -7.127985    0.520039    0.958941
C     -6.435129   -0.117147    2.181775
C     -5.597152   -1.364306    1.840323
C     -4.383653   -1.100303    0.933208
C     -3.305385   -0.245716    1.616585
C     -2.106486   -0.073282    0.725410
C     -1.254913   -1.083280    0.488580
C     -0.056432   -0.910513   -0.403631
C      1.023927   -0.057696    0.279479
C      2.220335    0.232151   -0.641445
C      3.124369   -0.996823   -0.840922
C      4.313805   -0.709180   -1.771655
C      5.398091    0.148760   -1.102045
C      6.614493    0.313801   -2.025569
C      7.739529    1.122834   -1.366391
C      7.357246    2.559222   -1.180695
O      7.373379    3.350221   -2.160608
O      6.946036    3.015320    0.065620
H     -6.979240    2.221835   -0.375524
H     -6.433852    2.554605    1.308851
H     -5.387167    1.598259    0.185939
H     -8.172162    0.784565    1.234956
H     -7.189720   -0.198025    0.112445
H     -7.227501   -0.445297    2.889839
H     -5.825385    0.625486    2.738841
H     -6.254485   -2.112015    1.344601
H     -5.244771   -1.827371    2.787995
H     -4.707239   -0.626338   -0.017058
H     -3.944854   -2.086962    0.668162
H     -3.711023    0.762025    1.841907
H     -2.991876   -0.712958    2.575800
H     -1.919906    0.904963    0.290175
H     -1.441463   -2.061588    0.923846
H      0.350130   -1.918131   -0.629800
H     -0.372535   -0.442250   -1.361693
H      1.373477   -0.561996    1.207418
H      0.580229    0.918054    0.575718
H      1.856929    0.602512   -1.624977
H      2.811226    1.046752   -0.172943
H      3.494095   -1.361841    0.142314
H      2.532046   -1.814580   -1.302034
H      4.761776   -1.684107   -2.065158
H      3.955353   -0.211764   -2.699741
H      4.985325    1.151335   -0.865620
H      5.720026   -0.335943   -0.154208
H      6.306004    0.806423   -2.974367
H      7.015171   -0.691912   -2.280543
H      8.643542    1.074599   -2.011207
H      8.006467    0.674502   -0.384882
