45

C      6.050373    2.065986   -1.562784
O      6.067112    0.706701   -1.138846
C      4.938050   -0.001268   -0.699922
C      5.099176   -1.332405   -0.315065
C      4.014042   -2.103368    0.117940
C      2.726517   -1.501704    0.241706
C      2.568632   -0.158700   -0.179184
C      3.661598    0.576327   -0.645438
O      1.382491    0.431503   -0.135442
C      0.283619   -0.163562    0.310148
C      0.346996   -1.472308    0.825869
C      1.593583   -2.141279    0.801981
O      1.697891   -3.281272    1.321814
O     -0.827465   -2.029896    1.371434
C     -0.987879   -3.353959    1.869110
C     -0.983497    0.602353    0.269723
C     -0.985577    1.949732    0.644113
C     -2.165447    2.699403    0.597543
C     -3.365420    2.117407    0.161611
C     -3.372505    0.757451   -0.244348
C     -2.172479    0.019059   -0.192905
O     -4.563343    0.164737   -0.693597
C     -4.695919   -1.191067   -1.109283
O     -4.505118    2.944303    0.154104
C     -5.820869    2.570601   -0.239387
O     -2.155465    4.038214    0.987446
O      4.270964   -3.453149    0.375612
H      7.077942    2.368581   -1.850670
H      5.385298    2.182849   -2.444394
H      5.705984    2.720237   -0.734162
H      6.079867   -1.787215   -0.385094
H      3.505849    1.602343   -0.951540
H     -0.357485   -3.505264    2.770228
H     -2.048073   -3.500787    2.160175
H     -0.737057   -4.094429    1.080565
H     -0.070325    2.417995    0.986499
H     -2.152267   -1.006592   -0.533784
H     -4.425574   -1.874560   -0.276689
H     -5.751004   -1.380006   -1.394469
H     -4.050424   -1.385192   -1.991721
H     -5.831444    2.266508   -1.307117
H     -6.491706    3.446188   -0.122887
H     -6.200168    1.754890    0.411359
H     -1.308150    4.492484    1.307910
H      3.568676   -4.177871    0.381836
