35

C     -4.278722   -1.645461   -0.549434
C     -3.389962   -0.454173   -0.392897
C     -3.929929    0.831811   -0.387663
C     -3.078518    1.924382   -0.240131
O     -3.573030    3.084098   -0.236236
C     -1.688836    1.713357   -0.098900
C     -1.214070    0.374262   -0.113907
O     -2.080467   -0.627824   -0.258557
C      0.171739    0.102560    0.023872
C      0.687377   -1.220986    0.014105
C      2.074045   -1.424152    0.155402
C      2.952680   -0.351262    0.304926
C      2.446101    0.956012    0.314868
C      1.070451    1.189105    0.176268
C      0.591348    2.504446    0.189615
C     -0.772203    2.775541    0.054236
O     -1.206870    4.101948    0.072988
O      4.321710   -0.628747    0.440588
C      5.333486    0.360435    0.600481
O     -0.187380   -2.311942   -0.135898
C      0.207499   -3.679936   -0.161065
H     -4.818481   -1.587266   -1.517954
H     -3.677529   -2.579133   -0.530375
H     -5.014970   -1.677067    0.281046
H     -4.998215    0.979944   -0.496935
H      2.488840   -2.422799    0.150843
H      3.118398    1.796717    0.430265
H      1.282305    3.331704    0.306376
H     -0.560573    4.874901    0.182160
H      5.152968    0.945111    1.527197
H      6.319830   -0.140181    0.683207
H      5.350470    1.035410   -0.281195
H     -0.693610   -4.313546   -0.291112
H      0.698246   -3.953803    0.796661
H      0.895873   -3.863468   -1.012846
