49

C     -4.542413   -1.774825   -0.491007
C     -4.148085   -0.958872    0.737946
N     -3.542153    0.321125    0.343735
C     -4.284380    1.574426    0.526876
C     -5.311885    1.766077   -0.583185
C     -2.243352    0.361010   -0.275503
O     -2.083013    1.025868   -1.335904
C     -1.063601   -0.351685    0.340002
C     -0.721335   -1.627621   -0.459058
N      0.610552   -2.156658   -0.106442
C      1.655735   -1.160176   -0.452031
C      3.100943   -1.692253   -0.165004
C      4.094743   -0.582775   -0.301483
C      5.482668   -0.601127   -0.399780
N      5.972811    0.659013   -0.254301
C      4.902573    1.448612   -0.036873
C      4.864265    2.812625    0.244209
C      3.601057    3.389219    0.503496
C      2.423271    2.596463    0.488824
C      2.503640    1.208042    0.211328
C      3.764140    0.709369   -0.054820
C      1.369896    0.233243    0.147100
C      0.109064    0.593517    0.446990
C      0.657840   -2.615686    1.298288
H     -4.960601   -2.751930   -0.170046
H     -5.312557   -1.236034   -1.080375
H     -3.663071   -1.960646   -1.140438
H     -3.443655   -1.543878    1.364689
H     -5.060259   -0.784783    1.349278
H     -4.798670    1.571612    1.512217
H     -3.583999    2.438772    0.527770
H     -4.820716    1.710126   -1.577462
H     -6.099346    0.986978   -0.516389
H     -5.792575    2.761254   -0.476939
H     -1.325340   -0.642552    1.379092
H     -1.493709   -2.405511   -0.276644
H     -0.749330   -1.413777   -1.551463
H      1.620412   -1.015946   -1.556137
H      3.351499   -2.513906   -0.869445
H      3.192960   -2.071113    0.872129
H      6.098077   -1.482272   -0.524609
H      6.976990    0.945067   -0.260622
H      5.768360    3.406749    0.271604
H      3.531526    4.447150    0.720601
H      1.477971    3.080023    0.685040
H     -0.096394    1.568827    0.864419
H     -0.297066   -3.101044    1.596123
H      0.864256   -1.778280    1.999562
H      1.442256   -3.391815    1.411048
