26

C     -2.553409    0.607367   -0.675010
C     -1.614668    0.081074    0.427056
C     -0.552292   -0.912116   -0.116990
C      0.590910   -0.192395   -0.911569
C      1.905215   -0.040976   -0.093309
C      1.724998    0.858432    1.140707
O      2.955209    1.061962    1.782474
O      2.900990    0.522704   -0.910449
O      0.855615   -0.863001   -2.120991
O     -1.194393   -1.879245   -0.914505
O     -2.392479   -0.555515    1.408609
O     -3.435725    1.561053   -0.147697
H     -3.155479   -0.230051   -1.087353
H     -1.979048    1.050502   -1.518190
H     -1.102199    0.960449    0.879966
H     -0.102358   -1.424515    0.767170
H      0.266108    0.832396   -1.190512
H      2.232718   -1.047106    0.263037
H      1.003322    0.407184    1.857158
H      1.326137    1.846848    0.827311
H      3.170912    0.217580    2.258330
H      3.332266   -0.223239   -1.403780
H      1.262628   -1.740328   -1.894666
H     -0.679735   -2.724010   -0.826924
H     -1.849350   -0.575139    2.239804
H     -2.915894    2.400088   -0.039675
