15

C     -1.477994   -1.226169    0.165203
C     -2.028245    0.052675    0.242761
C     -1.202349    1.174649    0.154487
C      0.181601    1.032166   -0.012144
C      0.745054   -0.267271   -0.091471
C     -0.100750   -1.385815   -0.000787
N      2.153147   -0.482499   -0.261658
O      0.947587    2.197350   -0.092860
H     -2.119090   -2.095597    0.233740
H     -3.095940    0.175321    0.371434
H     -1.639653    2.163304    0.215870
H      0.309830   -2.386173   -0.059086
H      2.844495    0.291955   -0.337083
H      2.532492   -1.454257   -0.315949
H      1.949814    2.210362   -0.212456
