26

C     -2.366551   -1.460804    1.166582
C     -1.645987   -0.517137    0.268257
C     -1.515334    0.796006   -0.344611
C     -0.599080   -0.231258   -0.623173
C     -0.709602   -0.866601   -2.008022
C      0.764704   -0.077360   -0.002733
C      1.316324   -1.116929    0.766482
C      2.599465   -0.989541    1.307216
C      3.347603    0.166894    1.071153
C      2.816791    1.195047    0.287625
C      1.534095    1.071989   -0.255161
C     -2.003363    2.189384   -0.537030
H     -1.858127   -2.446648    1.153099
H     -3.411769   -1.579505    0.814668
H     -2.366573   -1.058498    2.200291
H     -0.127782   -0.265307   -2.737986
H     -1.764203   -0.925289   -2.358577
H     -0.289810   -1.894113   -1.977802
H      0.753417   -2.024342    0.945704
H      3.015923   -1.789868    1.905120
H      4.341393    0.263040    1.488980
H      3.401444    2.085588    0.096402
H      1.140895    1.870238   -0.872067
H     -3.039111    2.165912   -0.933377
H     -1.344363    2.716860   -1.256791
H     -1.990398    2.722242    0.435751
