29

C     -2.164115    0.408890   -1.068821
C     -1.745000   -0.223292    0.108085
C     -2.672519   -0.339689    1.157489
O     -2.339916   -0.876564    2.249063
N     -3.939464    0.131447    0.998809
C     -4.324217    0.728593   -0.161716
O     -5.502341    1.158185   -0.288064
N     -3.438293    0.865544   -1.184532
C     -0.319498   -0.698228    0.248077
C      0.565139    0.416843    0.821686
C      1.977583   -0.061129    1.213149
C      2.873120   -0.565655    0.055837
C      2.992832    0.450304   -1.089853
O      3.968824    0.036478   -2.007676
O      2.405960   -1.790307   -0.447149
H     -1.473837    0.538688   -1.893847
H     -4.626515    0.036819    1.781657
H     -3.734535    1.330264   -2.072553
H     -0.278956   -1.593733    0.905635
H      0.057929   -1.003289   -0.750553
H      0.626159    1.261644    0.103143
H      0.083984    0.814315    1.742634
H      2.497785    0.789947    1.704874
H      1.890664   -0.860882    1.980842
H      3.896314   -0.715007    0.474429
H      2.025392    0.529107   -1.628791
H      3.246645    1.458545   -0.688972
H      4.849817    0.250505   -1.602865
H      2.601061   -2.478344    0.241636
