42

C     -2.339629    1.946375   -0.120279
C     -2.421794    0.520755    0.494056
C     -1.789964    0.492215    1.898729
C     -0.249246    0.676483    1.818216
C      0.449704   -0.280483    0.796535
C     -0.274612   -0.289029   -0.585135
C     -1.761113   -0.589040   -0.335401
C     -2.719990   -0.846378   -1.498966
C     -4.107599   -0.714814   -0.845191
C     -3.846527    0.087719    0.393992
O     -4.715962    0.401393    1.192453
C      0.390191   -1.337262   -1.484170
C      1.827742   -0.914271   -1.800501
C      2.591949   -0.403958   -0.596604
C      1.944815   -0.019990    0.611019
C      2.740407    0.451245    1.677916
C      4.119638    0.605612    1.530280
C      4.741450    0.270773    0.329377
C      3.979439   -0.231504   -0.729176
O      6.118439    0.437005    0.198256
H     -2.730897    1.966837   -1.159145
H     -1.309897    2.350600   -0.142333
H     -2.951972    2.650618    0.483368
H     -2.226065    1.295652    2.531506
H     -2.013813   -0.477956    2.395932
H     -0.002194    1.731219    1.575633
H      0.139455    0.477373    2.838482
H      0.372852   -1.303158    1.231266
H     -0.166044    0.697195   -1.084813
H     -1.787849   -1.539693    0.255825
H     -2.584107   -0.084518   -2.296752
H     -2.577306   -1.861459   -1.929144
H     -4.504982   -1.714425   -0.566265
H     -4.818769   -0.188267   -1.516663
H      0.390684   -2.332018   -0.985609
H     -0.165330   -1.433623   -2.441670
H      1.804132   -0.106239   -2.564019
H      2.362203   -1.782495   -2.244176
H      2.312385    0.699530    2.636823
H      4.709099    0.980543    2.357550
H      4.469841   -0.490455   -1.660075
H      6.601236    0.201894   -0.661129
