44

C     -6.160896   -1.271793    0.263006
C     -6.593028   -0.021154   -0.466273
C     -5.887567    1.127683   -0.385147
C     -4.623338    1.277704    0.414740
O     -3.584313    0.505512   -0.181018
C     -2.279210    0.407569    0.322856
C     -1.366971   -0.408872   -0.352330
C     -0.048924   -0.548110    0.106617
C      0.375261    0.160392    1.251365
C     -0.549985    0.965068    1.937045
C     -1.862599    1.093076    1.477048
C      1.761168    0.058164    1.765504
O      1.950640    0.028545    3.012787
C      2.918037    0.041444    0.843705
C      4.168885   -0.180901    1.272145
C      5.354271   -0.189359    0.380079
C      5.258644   -0.434926   -1.005126
C      6.407461   -0.444735   -1.802492
C      7.663622   -0.220927   -1.232573
C      7.769628    0.008442    0.144592
C      6.623837    0.018274    0.945501
O      8.798220   -0.232621   -2.040707
O      0.824130   -1.408520   -0.559342
C     -7.845548   -0.041169   -1.303594
H     -6.870018   -2.108018    0.091536
H     -6.119529   -1.080166    1.355601
H     -5.161373   -1.595808   -0.094180
H     -6.243517    2.004942   -0.920044
H     -4.797303    0.952222    1.462741
H     -4.327400    2.348844    0.418851
H     -1.689783   -0.949000   -1.233744
H     -0.250779    1.510848    2.823766
H     -2.543496    1.730204    2.024598
H      2.732341    0.257813   -0.198772
H      4.343117   -0.328842    2.331798
H      4.308218   -0.644186   -1.475896
H      6.321690   -0.634435   -2.864988
H      8.738982    0.177961    0.595867
H      6.728194    0.197377    2.008862
H      9.722940   -0.075094   -1.657334
H      0.535893   -1.930596   -1.378585
H     -7.596770    0.209435   -2.356629
H     -8.569451    0.705675   -0.914025
H     -8.333381   -1.037962   -1.289960
