15

C     -0.985719   -1.375971    0.529432
N     -0.001499   -0.376077    0.135731
C      1.440741   -0.552846    0.151215
C      1.880579    0.777874   -0.343610
O      3.080286    1.121183   -0.507639
N      0.780755    1.637319   -0.616856
C     -0.272819    0.946249   -0.332256
N     -1.590899    1.474400   -0.478672
H     -1.592879   -0.989592    1.374455
H     -1.649949   -1.604522   -0.329961
H     -0.477378   -2.310007    0.849399
H      1.802966   -0.734499    1.185262
H      1.744918   -1.359975   -0.548409
H     -1.731509    2.449110   -0.825618
H     -2.427594    0.897353   -0.242475
