22

C      4.286121   -0.090470   -0.003185
O      2.978806    0.468410   -0.048078
C      1.825374   -0.293731    0.161189
O      1.913731   -1.528192    0.401512
C      0.507839    0.360639    0.097852
C      0.284280    1.710727   -0.158589
N     -1.039408    1.983592   -0.145962
C     -1.657251    0.819523    0.116013
C     -3.030180    0.603984    0.227968
C     -3.470946   -0.701070    0.508974
C     -2.540588   -1.750324    0.670135
C     -1.160385   -1.505292    0.551965
C     -0.748740   -0.198962    0.272169
H      4.479632   -0.524874    1.000480
H      4.389874   -0.877814   -0.779602
H      5.030798    0.708012   -0.199047
H      1.049089    2.453792   -0.344487
H     -1.487077    2.913089   -0.307699
H     -3.736041    1.414891    0.102753
H     -4.530209   -0.902203    0.602257
H     -2.891692   -2.750964    0.886261
H     -0.453026   -2.312764    0.676424
