16

C     -2.393024   -0.860035   -0.029931
C     -0.995296   -0.338628   -0.013553
C     -0.622267    0.989079   -0.063315
C      0.750188    1.000181   -0.024108
C      1.144703   -0.319843    0.047506
O      0.080550   -1.097404    0.052267
C      2.550305   -0.815872    0.111124
O      1.575250    2.117724   -0.051137
O     -1.470250    2.089639   -0.137996
H     -2.899701   -0.541269   -0.964649
H     -2.384966   -1.969042    0.018031
H     -2.949874   -0.463350    0.844471
H      3.103760   -0.487212   -0.793146
H      2.559540   -1.924892    0.158665
H      3.049005   -0.410063    1.015912
H     -1.097923    3.030987   -0.170142
