31

C     -2.428843    1.817017    0.495121
C     -1.285358    0.836554    0.230033
C     -1.425030    0.098779   -1.118294
C     -0.343029   -0.984705   -1.382326
C     -0.949699   -2.297090   -0.851899
O     -2.346891   -2.104115   -0.974253
C     -2.641362   -0.763378   -1.119522
O     -3.815474   -0.339672   -1.284709
C      1.142822   -0.705832   -1.023952
C      1.490018   -0.547124    0.439068
C      1.507864   -1.553413    1.385971
N      2.028990   -1.082886    2.536146
C      2.339251    0.200685    2.265304
N      2.035185    0.554282    1.001232
C      2.474964    1.785404    0.345986
H     -2.188120    2.432243    1.387803
H     -3.373855    1.273123    0.700469
H     -2.569879    2.494753   -0.373606
H     -1.224625    0.110552    1.070385
H     -0.358357    1.435128    0.211847
H     -1.457866    0.828975   -1.957287
H     -0.330486   -1.108534   -2.491356
H     -0.724911   -2.449539    0.218510
H     -0.621514   -3.176975   -1.445218
H      1.463339    0.193096   -1.588207
H      1.756018   -1.543457   -1.421143
H      1.235441   -2.588188    1.236969
H      2.830926    0.854759    2.974110
H      2.625108    2.588118    1.099049
H      3.434375    1.601884   -0.181328
H      1.720996    2.139555   -0.384903
