20

C     -1.352683   -0.018950   -0.809968
C     -1.033646    1.382185   -0.245834
C      0.164028    1.437658    0.717352
C      1.328880    0.650488    0.207580
N      2.523170    1.183774   -0.108698
N      3.260645    0.157782   -0.511524
N      2.554551   -0.961622   -0.449054
N      1.339828   -0.678307   -0.013420
C      0.306746   -1.691321    0.234409
C     -1.138411   -1.148402    0.211545
H     -2.415848   -0.025103   -1.135391
H     -0.741748   -0.209400   -1.719920
H     -0.847097    2.071325   -1.098247
H     -1.926916    1.765174    0.294191
H     -0.125569    1.047269    1.715716
H      0.464694    2.498295    0.858272
H      0.396181   -2.480359   -0.544019
H      0.499304   -2.172676    1.216866
H     -1.814706   -1.992242   -0.047438
H     -1.441402   -0.815568    1.227582
