20

C     -3.058700    0.790064    0.261619
C     -2.260790   -0.250315    1.031512
C     -1.878211    0.096839   -0.397291
N     -0.680038    0.927077   -0.489022
C      0.648932    0.397603   -0.369661
N      1.708228    1.238141   -0.492410
C      2.975439    0.769230   -0.382945
O      3.947893    1.560654   -0.498876
N      3.192420   -0.550741   -0.148754
C      2.138613   -1.399739   -0.025325
O      2.339544   -2.625049    0.191215
N      0.867896   -0.928401   -0.135626
H     -4.051574    0.432058   -0.083120
H     -2.882355    1.833265    0.601048
H     -1.602394    0.173549    1.820041
H     -2.776092   -1.227627    1.141682
H     -2.077632   -0.663459   -1.181931
H     -0.791220    1.936184   -0.737721
H      4.169627   -0.913390   -0.064007
H      0.070414   -1.595941   -0.040429
