13

C     -1.059117   -0.509555   -1.102130
C     -0.337837    0.045898    0.127583
C      1.043884   -0.536242    0.211787
O      1.304696   -1.420210    1.071245
O      2.030514   -0.122313   -0.678843
N     -0.258825    1.504471    0.048577
H     -1.110093   -1.618379   -1.048848
H     -0.527756   -0.215444   -2.032990
H     -2.096921   -0.115856   -1.144236
H     -0.914912   -0.241621    1.036468
H      2.963499   -0.514914   -0.639753
H      0.195111    1.856200    0.923426
H     -1.232243    1.887965    0.056379
