20

C     -1.738779   -1.917790    0.138157
C     -2.632474   -0.852644    0.043972
C     -2.157302    0.456605   -0.038162
C     -0.773101    0.716238   -0.037954
C      0.140913   -0.371523    0.025005
C     -0.362417   -1.684060    0.135658
C      1.529013   -0.098614    0.012929
C      1.959002    1.233304   -0.011527
C      1.028710    2.267815   -0.063116
N     -0.304380    2.002146   -0.085591
O     -1.178990    3.065029   -0.145793
N      2.509636   -1.148765   -0.002140
O      3.569426   -1.021369    0.645252
O      2.412114   -2.167527   -0.921696
H     -2.114127   -2.929765    0.220620
H     -3.698380   -1.041130    0.047090
H     -2.875693    1.264295   -0.094242
H      0.294215   -2.535343    0.244221
H      3.015627    1.470161   -0.017787
H      1.376987    3.292937   -0.094896
