48

C     -5.485111    0.679849    0.203020
C     -4.679635   -0.441816   -0.456842
C     -3.253119    0.048754   -0.837793
N     -2.244027   -0.422471    0.119201
C     -2.242764   -1.825937    0.550951
C     -3.551942   -2.512820    0.164954
N     -4.668061   -1.608810    0.448962
C     -1.134211    0.425414    0.461933
C     -1.348748    1.620099    1.159567
C     -0.273405    2.441614    1.496247
C      1.041044    2.086724    1.138591
C      1.273729    0.885084    0.423331
C      0.170383    0.062755    0.098841
N      2.559100    0.540060    0.070618
C      3.617801    1.331698    0.411754
C      3.436152    2.530087    1.114853
C      2.131730    2.907077    1.480540
O      1.938637    3.987791    2.104678
C      4.612898    3.363826    1.472749
O      4.596592    4.062453    2.520813
O      5.750757    3.396150    0.667793
C      2.846990   -0.662864   -0.664278
C      2.645759   -0.710725   -2.053595
C      2.924735   -1.884495   -2.761312
C      3.408243   -3.011132   -2.088315
C      3.615108   -2.965169   -0.706028
C      3.337198   -1.793965    0.005142
F      3.677677   -4.147811   -2.776415
F      2.178397    0.377881   -2.714585
F     -2.600595    1.978498    1.538251
H     -5.555048    1.558220   -0.473625
H     -6.516038    0.327726    0.420302
H     -5.008068    0.989081    1.156667
H     -5.206780   -0.716439   -1.399925
H     -3.220097    1.156444   -0.936284
H     -2.991131   -0.358136   -1.838820
H     -1.393112   -2.373179    0.090982
H     -2.131107   -1.862365    1.656588
H     -3.664134   -3.444934    0.760519
H     -3.540501   -2.792628   -0.913129
H     -5.558645   -2.142448    0.310784
H     -0.473665    3.354759    2.043528
H      0.311296   -0.858123   -0.449054
H      4.621182    1.015707    0.148993
H      5.790569    2.930789   -0.230246
H      2.766511   -1.920797   -3.831518
H      3.990234   -3.836541   -0.184942
H      3.497223   -1.764934    1.075554
