46

C     -2.639414   -1.590699    0.869097
C     -2.566302   -0.547662   -0.280893
C     -1.933192   -1.157163   -1.543616
C     -0.433334   -1.470819   -1.307675
C      0.391525   -0.276571   -0.705909
C     -0.346505    0.432171    0.490413
C     -1.790429    0.732367    0.049946
C     -2.724619    1.548190    0.946718
C     -4.113156    1.294475    0.334349
C     -3.936263    0.023562   -0.439327
O     -4.832284   -0.511474   -1.073975
C      0.378645    1.730242    0.893292
C      1.839889    1.478424    1.144654
C      2.454971    2.037766    2.194218
C      2.573613    0.641159    0.164227
C      3.794672    1.014130   -0.259391
C      4.485567    0.266929   -1.309362
O      5.648023    0.596882   -1.663043
C      3.803032   -0.842186   -1.969860
C      2.591107   -1.226873   -1.567852
C      1.884850   -0.635584   -0.345770
C      1.987369   -1.693764    0.777530
H     -3.300809   -2.432509    0.570728
H     -1.653819   -2.024225    1.124729
H     -3.058597   -1.145696    1.796149
H     -2.028254   -0.451769   -2.399195
H     -2.466607   -2.091072   -1.825830
H     -0.353025   -2.368309   -0.665711
H     -0.014881   -1.749772   -2.296345
H      0.449097    0.474837   -1.528283
H     -0.370293   -0.221389    1.383973
H     -1.703507    1.344161   -0.883879
H     -2.470739    2.630278    0.924536
H     -2.682404    1.180282    1.994793
H     -4.884036    1.174090    1.125030
H     -4.392167    2.117839   -0.357851
H      0.291372    2.484661    0.081091
H     -0.108527    2.149382    1.801475
H      1.913121    2.669025    2.887183
H      3.503964    1.857426    2.391534
H      4.262630    1.914240    0.121101
H      4.285493   -1.355670   -2.792561
H      2.164758   -2.092032   -2.057283
H      3.056051   -1.895412    1.010286
H      1.511426   -1.352589    1.718542
H      1.531989   -2.659279    0.478016
