25

C      3.984533    0.789976    0.221126
N      2.927239   -0.060424    0.770142
C      1.636503    0.269976    0.153980
C      0.546112   -0.698064    0.652274
C     -0.811626   -0.346042    0.075609
C     -1.834915    0.126127    0.918158
C     -3.088794    0.462472    0.395576
C     -3.329152    0.331787   -0.978042
C     -2.319130   -0.130977   -1.823991
C     -1.066354   -0.467274   -1.303722
O     -4.087324    0.925751    1.249398
O      0.873503   -2.037534    0.371403
H      4.947138    0.546732    0.718432
H      3.759763    1.865783    0.394437
H      4.104468    0.602607   -0.867684
H      2.861820    0.145769    1.794880
H      1.344821    1.313012    0.416036
H      1.716866    0.197932   -0.953811
H      0.503795   -0.601864    1.759598
H     -1.662327    0.235101    1.981888
H     -4.296219    0.590190   -1.390302
H     -2.506578   -0.227717   -2.885636
H     -0.297409   -0.817225   -1.979945
H     -5.005560    1.177910    0.902760
H      1.098828   -2.106411   -0.592562
