16

C      1.355112    0.019729    0.310925
C      0.718985   -1.305109    0.740888
O     -0.228431   -1.739755   -0.215777
C     -1.314439   -0.833694   -0.255923
C     -0.863643    0.538817   -0.766994
N      0.313869    0.990164   -0.019090
N      0.619063    2.357992    0.087469
O     -0.171995    3.235934   -0.315163
H      1.994985   -0.146193   -0.582467
H      1.990104    0.407545    1.136764
H      1.516864   -2.072971    0.822596
H      0.257413   -1.206609    1.750250
H     -1.795232   -0.737638    0.744666
H     -2.084502   -1.235441   -0.947691
H     -1.702258    1.257208   -0.644677
H     -0.605897    0.470021   -1.845776
