26

C     -5.108588    0.380990    0.460899
C     -4.668624   -0.747133   -0.237000
C     -3.299533   -0.974211   -0.410198
C     -2.361291   -0.074797    0.113270
C     -2.809971    1.060003    0.815445
C     -4.180024    1.283657    0.986588
N     -0.966375   -0.336171   -0.081460
N     -0.062688    0.439463    0.367557
C      1.332300    0.178218    0.172900
C      1.780880   -0.955711   -0.528791
C      3.150372   -1.180488   -0.700604
C      4.085753   -0.278141   -0.175250
C      3.638874    0.851697    0.523910
C      2.269685    1.077128    0.696119
N      5.486041   -0.508620   -0.351337
H     -6.168398    0.555604    0.594270
H     -5.388291   -1.445753   -0.643830
H     -2.967761   -1.850954   -0.952315
H     -2.105711    1.770038    1.229623
H     -4.521889    2.157007    1.526903
H      1.076232   -1.665472   -0.942829
H      3.482318   -2.057092   -1.242685
H      4.350596    1.556675    0.934848
H      1.937019    1.953626    1.238140
H      6.190466    0.157948    0.036413
H      5.828609   -1.347510   -0.870747
