32

C     -3.775863   -1.156501    0.191360
C     -2.248508   -1.040012    0.323942
C     -1.685340    0.045956   -0.620254
C     -0.175301    0.153978   -0.473451
C      0.410160    1.187088    0.291173
C      1.811188    1.236440    0.423537
C      2.617448    0.270456   -0.180347
C      2.040011   -0.770043   -0.926103
C      0.650076   -0.821886   -1.062280
O      2.807541   -1.768946   -1.543674
C      4.228479   -1.841589   -1.487555
O     -0.420087    2.139379    0.906216
C      0.042229    3.216430    1.714515
O     -2.013191   -0.268411   -1.950626
N     -1.877312   -0.747612    1.711988
H     -4.054226   -1.454861   -0.841455
H     -4.265131   -0.188173    0.430929
H     -4.160206   -1.932456    0.886884
H     -1.805979   -2.021454    0.040309
H     -2.171327    1.014629   -0.359630
H      2.289911    2.018258    0.996932
H      3.689538    0.339423   -0.056111
H      0.210332   -1.632115   -1.631258
H      4.564027   -1.948648   -0.434381
H      4.569051   -2.728076   -2.060701
H      4.675523   -0.931754   -1.940962
H     -0.830025    3.801414    2.071217
H      0.699431    3.885507    1.119955
H      0.591065    2.823694    2.596385
H     -1.843145    0.548998   -2.488585
H     -2.188896   -1.540519    2.318983
H     -2.381473    0.111407    2.033048
