30

C      2.119705    1.012896    2.039014
N      2.056887    0.390610    0.707017
C      3.399568    0.393260    0.100373
C      1.520844   -0.985440    0.811212
C      0.918125   -1.456486   -0.519375
C     -0.144782   -0.513648   -1.002851
C      0.020139    0.520249   -1.919759
N     -1.131381    1.216327   -2.058067
C     -2.016994    0.638484   -1.227740
C     -3.339846    1.018804   -1.005581
C     -4.087553    0.281338   -0.069199
C     -3.501923   -0.804725    0.618814
C     -2.163754   -1.164500    0.375832
C     -1.449908   -0.417971   -0.561873
H      1.098091    1.099422    2.467812
H      2.756857    0.418145    2.731421
H      2.526818    2.044566    1.965191
H      4.119376   -0.202917    0.704599
H      3.362914   -0.015898   -0.929877
H      3.778814    1.434484    0.015283
H      2.308951   -1.701885    1.136533
H      0.710517   -1.034018    1.574216
H      0.472966   -2.464695   -0.378465
H      1.708991   -1.558936   -1.291160
H      0.936499    0.758063   -2.444238
H     -1.290909    2.044491   -2.673800
H     -3.777930    1.856176   -1.533127
H     -5.117306    0.549973    0.127268
H     -4.085906   -1.362921    1.338900
H     -1.707872   -1.993249    0.901623
