27

C     -1.077587    3.986953   -0.728011
O     -0.254695    2.828404   -0.666018
C     -0.578732    1.714100    0.115164
O     -1.618817    1.722852    0.829622
C      0.337180    0.550926    0.142742
C     -0.113937   -0.782240    0.332664
C      0.832495   -1.813857    0.476715
C      2.210176   -1.552504    0.394496
C      2.640375   -0.239476    0.162671
C      1.715749    0.797306    0.038703
C      3.197455   -2.646372    0.536105
O      2.815039   -3.829921    0.743241
O      4.560779   -2.377993    0.442616
C     -1.549361   -1.146579    0.312837
O     -1.965996   -2.093982    1.035280
O     -2.429964   -0.477832   -0.544013
C     -3.816725   -0.786039   -0.613063
H     -2.083450    3.718289   -1.114843
H     -0.614559    4.726708   -1.412714
H     -1.172138    4.440548    0.281328
H      0.490938   -2.831994    0.622669
H      3.695505   -0.007493    0.089199
H      2.084476    1.805454   -0.107754
H      5.244795   -3.119098    0.538305
H     -3.956497   -1.841714   -0.928364
H     -4.300899   -0.121025   -1.357216
H     -4.291603   -0.623421    0.377636
