24

C      0.246201   -0.710514    0.663649
C     -0.446560   -0.187855   -0.622276
C     -1.992124   -0.294775   -0.537094
C     -2.585264    0.614384    0.509273
O     -3.084341    0.125338    1.558181
O     -2.570295    1.994764    0.329966
O     -2.581200   -0.049148   -1.790159
O     -0.059344    1.142867   -0.867446
C      1.744673   -1.026751    0.438481
C      2.547670    0.209702    0.136157
O      2.840997    1.019295    1.056850
O      2.948454    0.471175   -1.170424
O      2.261462   -1.658515    1.581530
O      0.092086    0.221263    1.706311
H     -0.248029   -1.670560    0.946768
H     -0.123490   -0.842362   -1.467785
H     -2.246849   -1.343742   -0.268426
H     -2.959041    2.614028    1.030978
H     -2.390823    0.892090   -2.041295
H     -0.013950    1.260565   -1.852098
H      1.825944   -1.726646   -0.426004
H      3.479223    1.304448   -1.394020
H      3.118949   -2.082720    1.314177
H      0.195652   -0.276332    2.559092
