45

C      4.933169   -0.577564    2.074208
N      4.026622   -0.893749    0.958295
C      4.809762   -1.024753   -0.283468
C      2.991280    0.155170    0.826785
C      1.735138   -0.406551    0.147292
C      0.605741    0.638187    0.120807
C     -0.664435    0.132106   -0.612341
C     -1.702908    1.200518   -0.625960
C     -1.945074    1.561826   -1.905050
C     -1.089618    0.771031   -2.800069
O     -0.315274   -0.094757   -1.980590
C     -2.872338    2.553001   -2.231113
C     -3.567036    3.187137   -1.185249
C     -3.313069    2.817777    0.152225
C     -2.370538    1.816994    0.439809
C     -4.531455    4.213853   -1.479496
N     -5.307020    5.039509   -1.716134
C     -1.253050   -1.144211   -0.000299
C     -1.759089   -2.169574   -0.828640
C     -2.330697   -3.318922   -0.275447
C     -2.423608   -3.459519    1.109511
C     -1.952489   -2.446157    1.944702
C     -1.380229   -1.294041    1.398357
F     -2.980537   -4.574696    1.642797
H      5.419867    0.413059    1.929101
H      5.718620   -1.358519    2.168338
H      4.370498   -0.569657    3.032472
H      5.564801   -1.833219   -0.175799
H      5.333998   -0.075661   -0.534983
H      4.155235   -1.312505   -1.131249
H      2.684952    0.523646    1.832827
H      3.374785    1.033993    0.259226
H      1.402617   -1.308262    0.704693
H      1.974133   -0.707781   -0.893566
H      0.979133    1.544420   -0.407170
H      0.365039    0.954648    1.157670
H     -1.714299    0.170383   -3.494264
H     -0.417032    1.440652   -3.376366
H     -3.045474    2.823234   -3.265761
H     -3.839305    3.303268    0.965119
H     -2.167653    1.537468    1.464255
H     -1.720135   -2.087796   -1.906633
H     -2.707397   -4.099248   -0.924272
H     -2.034956   -2.549361    3.019091
H     -1.040676   -0.525375    2.076789
