26

C     -1.405103   -1.072321   -0.219630
C     -2.893124   -0.955960    0.132310
O     -3.082321   -0.075298    1.225611
C     -2.624500    1.222139    0.888373
C     -1.124533    1.202729    0.569924
N     -0.884477    0.266733   -0.540745
C      0.510569    0.265855   -1.033557
C      1.555219   -0.226466   -0.009915
C      2.963661   -0.184602   -0.610235
N      3.938744   -0.675369    0.358654
H     -0.871061   -1.512726    0.650148
H     -1.291733   -1.747536   -1.095582
H     -3.478107   -0.619560   -0.753847
H     -3.272634   -1.959780    0.417318
H     -2.797274    1.894259    1.755160
H     -3.200143    1.634889    0.028770
H     -0.801841    2.227463    0.283839
H     -0.574550    0.890720    1.484100
H      0.776709    1.296373   -1.356752
H      0.567427   -0.370022   -1.944386
H      1.337993   -1.272497    0.290220
H      1.542150    0.418040    0.893158
H      3.220581    0.857203   -0.907530
H      2.997536   -0.828564   -1.516692
H      4.870335   -0.705934   -0.115441
H      4.020475    0.030231    1.126725
