35

C      4.745918    0.868962   -0.078583
C      4.055259    0.829695    1.291936
C      4.262131   -0.498577    2.033412
C      2.604077    1.277658    1.249457
C      1.552258    0.679764    0.628458
C      0.264601    1.260240    0.708052
O      0.073924    2.337626    1.339065
N     -0.791237    0.661530    0.093535
C     -0.655375   -0.508023   -0.601851
C     -1.713888   -1.096830   -1.209182
C     -3.118266   -0.654695   -1.079907
C     -3.718045   -0.498727    0.182643
C     -5.063041   -0.129360    0.282112
C     -5.823068    0.065515   -0.874389
C     -5.241474   -0.117588   -2.132003
C     -3.896488   -0.486890   -2.235460
C      0.631549   -1.076536   -0.701360
O      0.820839   -2.145338   -1.347247
N      1.688212   -0.477171   -0.087909
H      5.845817    0.791645    0.057818
H      4.434702    0.040996   -0.742299
H      4.530950    1.833706   -0.585908
H      4.584412    1.592584    1.907058
H      5.341774   -0.634125    2.257812
H      3.710965   -0.486138    2.997975
H      3.932173   -1.375884    1.446537
H      2.423068    2.195168    1.799045
H     -1.710742    1.154044    0.143758
H     -1.555023   -1.953032   -1.854893
H     -3.147299   -0.670161    1.087142
H     -5.518127   -0.001944    1.255824
H     -6.864590    0.349302   -0.795993
H     -5.833991    0.022383   -3.026883
H     -3.459613   -0.633367   -3.215857
H      2.607639   -0.947076   -0.191918
