14

C     -1.902444   -0.073644   -0.040746
C     -1.241868    1.114966   -0.365332
C      0.155456    1.170635   -0.335865
C      0.898960    0.034799    0.019254
C      0.230943   -1.155678    0.344140
C     -1.166483   -1.208193    0.313751
N      2.327531    0.090099    0.049850
H     -2.983732   -0.115500   -0.063904
H     -1.812379    1.992894   -0.639679
H      0.657687    2.095886   -0.588925
H      0.791887   -2.039773    0.619971
H     -1.678657   -2.128032    0.564910
H      2.889483   -0.750063    0.312918
H      2.833616    0.971605   -0.190343
