16

C     -1.131305    0.949250   -0.519009
C     -0.084142   -0.085000   -0.075235
C     -0.565719   -0.799859    1.205254
C      1.222341    0.632744    0.185565
O      1.389657    1.285951    1.251668
O      2.226414    0.630947   -0.779750
N      0.104929   -1.066818   -1.151774
H     -2.107517    0.456082   -0.716242
H     -1.281924    1.720530    0.267425
H     -0.802285    1.455700   -1.452268
H     -1.507004   -1.357028    1.009379
H     -0.760563   -0.068415    2.019200
H      0.201321   -1.522812    1.557558
H      3.096531    1.126310   -0.625876
H     -0.796688   -1.567046   -1.331964
H      0.795953   -1.790535   -0.843930
