27

C     -3.236804   -1.002357    1.253927
C     -3.292214   -0.335690   -0.120197
C     -2.234763    0.767073   -0.303726
C     -0.800588    0.220802   -0.487695
C      0.143093    1.324201   -1.002920
C      1.523610    0.788840   -1.221328
O      1.818503    0.248604   -2.322378
O      2.459554    0.858350   -0.183328
C      3.759654    0.277681   -0.259207
C      3.682223   -1.234740   -0.085789
O     -0.309248   -0.324589    0.712344
H     -4.134458   -1.641980    1.388721
H     -2.342111   -1.651764    1.340391
H     -3.224616   -0.238490    2.060188
H     -4.296966    0.125887   -0.236452
H     -3.187377   -1.106656   -0.914060
H     -2.515635    1.339676   -1.215039
H     -2.271923    1.479438    0.549587
H     -0.827744   -0.587835   -1.251304
H     -0.241468    1.731835   -1.963465
H      0.186240    2.161104   -0.272334
H      4.383005    0.698701    0.557503
H      4.242377    0.531751   -1.227932
H      3.192601   -1.480353    0.880310
H      4.706156   -1.664079   -0.090352
H      3.100822   -1.690414   -0.914238
H     -0.281923    0.405004    1.385601
