23

C     -3.316183   -0.470132    0.270505
C     -2.890821    0.762322   -0.232788
C     -1.561929    0.935696   -0.632148
C     -0.648808   -0.128171   -0.533856
C     -1.082937   -1.362021   -0.020492
C     -2.412759   -1.531035    0.377419
C      0.790989    0.058898   -0.940485
C      1.706369    0.291167    0.276306
C      3.145367    0.254324   -0.168997
O      3.660202    1.258854   -0.728741
O      3.904910   -0.902100   -0.014459
N      1.412210    1.580526    0.908020
H     -4.344909   -0.602265    0.579877
H     -3.590445    1.584412   -0.311295
H     -1.244455    1.898349   -1.013304
H     -0.391139   -2.190193    0.072153
H     -2.742406   -2.484026    0.770613
H      0.884650    0.911872   -1.649082
H      1.123817   -0.851578   -1.487222
H      1.544701   -0.523362    1.018818
H      3.513925   -1.736730    0.405709
H      2.076761    1.716134    1.704984
H      0.462888    1.529056    1.343257
