20

C     -1.607729    1.285450   -0.237714
C     -2.041824   -0.179853   -0.230770
C     -0.894323   -1.154777   -0.550129
C      0.087260   -1.365836    0.617391
C      1.056938   -0.229813    0.780218
C      2.003847    0.019785   -0.129679
C      2.962136    1.124172    0.024165
O      3.838383    1.314208   -0.859019
O      2.914580    1.964893    1.130591
H     -0.987481    1.515937    0.651570
H     -1.039070    1.522212   -1.162021
H     -2.507069    1.935732   -0.201320
H     -2.827984   -0.306508   -1.006636
H     -2.501103   -0.429662    0.750138
H     -0.357639   -0.834850   -1.469618
H     -1.352433   -2.141398   -0.780228
H     -0.478734   -1.505433    1.563619
H      0.663551   -2.300551    0.442434
H      0.991327    0.371230    1.679288
H      2.077365   -0.604939   -1.012279
