48

C     -4.433646    0.887392   -1.108008
C     -3.891264    0.875931    0.311780
C     -2.609990    1.303237    0.566715
C     -2.078509    0.741284    1.956313
C     -3.114407    0.771902    3.113392
C     -4.430817    0.119807    2.659873
C     -4.857361    0.730531    1.415619
O     -6.071243    1.022093    1.228396
C     -0.821524    1.452950    2.477099
C     -1.711398   -0.787843    1.758169
C     -1.514759    1.188528   -0.379525
C     -1.150966    0.404420   -1.385124
C      0.258487    0.588518   -1.868774
C      1.050744   -0.492610   -2.000418
C      2.536954   -0.419127   -1.873481
C      3.229459   -1.553709   -1.874721
C      4.683740   -1.606087   -1.511737
C      5.437116   -2.505388   -2.169906
C      6.783713   -2.942705   -1.800668
O      7.525501   -2.200646   -1.118914
C      5.162017   -0.864769   -0.271930
C      0.863065    1.982395   -1.880890
H     -3.768761    0.276422   -1.724724
H     -5.459985    0.449417   -1.210462
H     -4.450144    1.915034   -1.515702
H     -2.699909    0.198926    3.988825
H     -3.248997    1.825042    3.465171
H     -5.190154    0.242308    3.458634
H     -4.310747   -0.950889    2.536185
H     -0.916476    2.581197    2.659432
H     -0.592673    1.037632    3.522302
H      0.049028    1.285382    1.828605
H     -2.515334   -1.396923    1.256182
H     -1.469802   -1.331016    2.683332
H     -0.817196   -0.895243    1.131189
H     -0.883877    2.018254   -0.083059
H     -1.692509   -0.508023   -1.651951
H      0.562130   -1.477235   -2.162459
H      3.075912    0.511038   -1.761482
H      2.701225   -2.498602   -2.037574
H      4.922580   -3.084028   -2.909111
H      7.088693   -3.910293   -2.142639
H      5.877480   -0.099594   -0.560657
H      5.592048   -1.553511    0.472135
H      4.310033   -0.382390    0.215061
H      1.213801    2.322381   -0.876937
H      0.076616    2.641957   -2.219232
H      1.702107    2.086651   -2.604323
