31

C      5.160722   -1.607664    1.155230
O      3.749634   -1.435601    1.073473
C      3.116833   -0.410209    0.354894
C      3.836576    0.560834   -0.364747
C      3.158728    1.557991   -1.068138
C      1.762889    1.603058   -1.057946
C      1.024577    0.648446   -0.332968
C      1.717324   -0.360540    0.360750
C     -0.460033    0.662910   -0.310820
C     -1.192338    1.852788   -0.475731
C     -2.587040    1.808444   -0.444943
O     -3.246810    2.873278   -0.591461
C     -3.233133    0.578863   -0.246457
C     -4.634690    0.463016   -0.205171
C     -5.227939   -0.786479    0.000697
C     -4.432860   -1.924087    0.166941
C     -3.039625   -1.819046    0.127832
C     -2.434403   -0.574408   -0.078365
O     -1.108473   -0.484866   -0.115181
H      5.382033   -2.493068    1.785649
H      5.583985   -1.777331    0.142665
H      5.628020   -0.714110    1.620441
H      4.917597    0.550545   -0.391281
H      3.717502    2.295556   -1.629901
H      1.269113    2.370238   -1.638700
H      1.171402   -1.109686    0.921617
H     -0.695727    2.806412   -0.599922
H     -5.269753    1.331396   -0.330508
H     -6.306386   -0.873192    0.032016
H     -4.897250   -2.888661    0.326352
H     -2.430478   -2.704829    0.257314
