35

C      3.894374   -2.260172    0.259375
O      2.900574   -1.245804    0.162403
C      1.508233   -1.421151    0.089639
C      0.910640   -2.733313    0.104659
C     -0.491778   -2.890144    0.114901
C     -1.276405   -1.752922    0.097991
C     -0.713018   -0.510415    0.057509
C      0.658657   -0.261277    0.036678
C      1.043123    1.130379    0.001687
C      2.381396    1.575730   -0.131704
C      2.693452    2.937340   -0.129589
C      1.691607    3.894880   -0.013352
C      0.359993    3.503948    0.081588
C      0.014549    2.144032    0.077884
C     -1.352001    1.794097    0.135372
C     -1.684618    0.451853    0.099043
N     -2.983279   -0.140750    0.142021
C     -2.719131   -1.544610    0.172461
O     -3.599620   -2.436357    0.293207
O     -4.123850    0.464438    0.564675
C     -4.846373    0.796033   -0.592993
O      1.697254   -3.883427    0.118922
H      3.877946   -2.903476   -0.645198
H      3.745547   -2.859083    1.182294
H      4.891353   -1.777790    0.319192
H     -0.948355   -3.871052    0.149718
H      3.213261    0.915993   -0.278178
H      3.724320    3.252866   -0.230150
H      1.947229    4.946724   -0.014423
H     -0.405192    4.268569    0.149559
H     -2.130672    2.545619    0.188631
H     -5.789358    1.297815   -0.293994
H     -5.110442   -0.118054   -1.169987
H     -4.269230    1.500781   -1.232179
H      1.289816   -4.811301    0.132336
