36

C      2.528390    2.382704   -0.272493
C      1.698722    1.123133   -0.123377
C      2.331821   -0.100027    0.148583
C      1.584943   -1.289295    0.154601
C      0.176364   -1.240934    0.028782
C     -0.516778    0.013191   -0.040386
C      0.290264    1.183432   -0.232417
N     -0.294097    2.438194   -0.599746
O     -0.610992    2.644417   -1.788785
O     -0.222864    3.503014    0.269290
C     -2.086642    0.100277    0.058130
C     -2.697709    0.002333   -1.353461
C     -2.568611    1.426930    0.718001
C     -2.697000   -1.030472    0.938415
N     -0.522937   -2.484746   -0.102259
O     -0.564320   -3.282453    0.857693
O     -0.897016   -2.919871   -1.351644
C      2.274962   -2.626114    0.339031
N      3.748540   -0.138251    0.363193
O      4.230781    0.321466    1.418291
O      4.587276   -0.503412   -0.664021
H      2.117287    3.043758   -1.063196
H      3.571689    2.162862   -0.578233
H      2.545469    2.931091    0.692352
H     -2.424892   -0.954846   -1.840684
H     -2.341025    0.825642   -2.003319
H     -3.806869    0.059932   -1.303458
H     -3.617457    1.364608    1.079176
H     -2.599903    2.270265    0.000971
H     -1.930291    1.686104    1.589906
H     -3.735835   -0.802336    1.259775
H     -2.809449   -1.983050    0.384691
H     -2.089916   -1.184838    1.856253
H      1.909175   -3.356297   -0.413093
H      3.373775   -2.573957    0.215211
H      2.065145   -3.012456    1.358224
