49

C      5.554985    2.140687   -0.587601
C      6.382689    0.969092   -0.126425
C      7.782250    1.119301   -0.085845
C      8.601963    0.070585    0.332231
C      8.039935   -1.144154    0.716394
C      6.655916   -1.314650    0.683868
C      5.809951   -0.276353    0.267647
N      4.398085   -0.552476    0.269907
N      3.506748    0.284131   -0.079725
C      2.110249   -0.033660   -0.061959
C      1.644904   -1.296100    0.345234
C      0.268722   -1.581085    0.353964
C     -0.650620   -0.592932   -0.052160
C     -0.176728    0.667680   -0.458172
C      1.192256    0.941149   -0.461371
N     -2.054711   -0.887374   -0.044486
N     -2.927897   -0.045584   -0.427433
C     -4.335199   -0.333698   -0.420358
C     -4.835965   -1.637906   -0.671373
C     -6.203282   -1.895275   -0.538799
C     -7.095330   -0.873423   -0.222506
C     -6.632111    0.433076   -0.033611
C     -7.536126    1.465260    0.264143
C     -7.075517    2.767893    0.462649
C     -5.712643    3.051230    0.368836
C     -4.800327    2.034558    0.074979
C     -5.244869    0.712512   -0.134595
O     -4.020373   -2.690591   -1.092225
C     -0.214932   -2.938127    0.787078
H      4.866278    2.460878    0.222013
H      6.188008    3.015418   -0.848895
H      4.980324    1.864987   -1.496484
H      8.246019    2.053200   -0.379080
H      9.676215    0.200946    0.358160
H      8.677668   -1.956504    1.040430
H      6.235007   -2.265885    0.985962
H      2.351129   -2.056498    0.654851
H     -0.864345    1.442496   -0.772330
H      1.540858    1.916885   -0.776609
H     -6.582099   -2.894536   -0.713643
H     -8.151423   -1.102567   -0.141392
H     -8.597941    1.264200    0.344302
H     -7.776943    3.559820    0.691617
H     -5.360918    4.062880    0.525437
H     -3.750341    2.290998    0.010620
H     -3.076883   -2.564931   -1.431779
H      0.625528   -3.593706    1.099663
H     -0.910311   -2.831554    1.646215
H     -0.747854   -3.430294   -0.053604
