13

C     -0.046023   -1.138046   -0.250828
C     -0.428529    0.340359   -0.478241
C      0.780855    0.977298    0.022110
O      1.086140    2.190734   -0.119328
N      1.619516    0.022234    0.615593
O      1.041012   -1.206979    0.664321
N     -1.589261    0.745791    0.315984
H     -0.903557   -1.724173    0.143598
H      0.267906   -1.595577   -1.214510
H     -0.587506    0.566444   -1.555501
H      2.657165    0.137628    0.613270
H     -1.467435    0.430745    1.307175
H     -2.430283    0.253542   -0.063643
