39

C     -6.121965    0.102158   -0.444302
N     -4.849251   -0.586220   -0.693114
C     -4.831025   -1.734820   -1.607267
C     -3.629461   -0.138457   -0.046050
C     -2.365603   -0.449990   -0.591704
C     -1.190256   -0.018251    0.032402
C     -1.258755    0.736764    1.221514
C     -2.506888    1.050932    1.770525
C     -3.679093    0.618974    1.143936
C     -0.070359    1.159453    1.831485
C      1.163444    0.830217    1.254801
C      2.368044    1.237191    1.838695
C      3.586854    0.898587    1.244572
C      3.628753    0.144918    0.051769
C      2.407895   -0.261795   -0.528325
C      1.186105    0.075490    0.063911
N      0.019282   -0.325139   -0.509167
N      4.896894   -0.201893   -0.564314
C      4.964145   -0.553401   -1.988235
C      6.134594   -0.204105    0.225142
H     -6.485197   -0.133469    0.577960
H     -5.985019    1.199435   -0.550073
H     -6.902882   -0.207980   -1.170480
H     -4.280178   -2.579686   -1.141898
H     -5.857765   -2.091563   -1.835216
H     -4.342371   -1.449472   -2.562204
H     -2.283178   -1.018045   -1.508542
H     -2.577279    1.628297    2.684916
H     -4.623626    0.872541    1.604687
H     -0.105402    1.740491    2.746747
H      2.368380    1.819456    2.752598
H      4.495057    1.241673    1.719954
H      2.394734   -0.850393   -1.435717
H      4.523755   -1.559537   -2.149598
H      6.012187   -0.568658   -2.356275
H      4.411271    0.199256   -2.589877
H      5.979322   -0.766631    1.170113
H      6.437677    0.838785    0.455212
H      6.967160   -0.695110   -0.321649
