28

C     -4.578555    0.521518   -0.227465
C     -3.949028   -0.172255   -1.264733
C     -2.676985   -0.720092   -1.070876
C     -2.031177   -0.586237    0.169383
C     -2.662940    0.126439    1.201950
C     -3.935005    0.672757    1.004004
C     -0.645760   -1.139566    0.366919
N      0.363135   -0.149443   -0.007878
C      1.764722   -0.439171    0.091345
N      2.201445   -1.655350    0.541337
C      3.537996   -1.946243    0.641383
N      4.478141   -1.018012    0.290093
C      4.050638    0.187115   -0.155838
C      2.736909    0.494361   -0.262112
N      2.615634    1.744510   -0.726688
C      3.898774    2.155530   -0.887578
N      4.821660    1.216384   -0.543693
H     -5.562410    0.946199   -0.379556
H     -4.445077   -0.282185   -2.220418
H     -2.195593   -1.246439   -1.885839
H     -2.170603    0.259494    2.157379
H     -4.420195    1.216784    1.804071
H     -0.513073   -2.054639   -0.250664
H     -0.502798   -1.428509    1.431084
H      0.058774    0.788280   -0.355072
H      3.850327   -2.916997    1.000786
H      1.746545    2.287795   -0.923552
H      4.164498    3.137971   -1.254890
