16

C     -0.534150   -1.239882    0.288920
C     -1.051841   -0.041738    0.588513
C     -2.505163    0.183528    0.701323
O     -3.321647   -0.754181    0.496674
O     -2.991392    1.444137    1.034974
C      0.921177   -1.486577    0.208343
O      1.346962   -2.629968    0.519689
C      1.905594   -0.469920   -0.218608
C      1.619572    0.501787   -1.085537
O      2.607418    1.402486   -1.466692
H     -1.190725   -2.094842    0.178873
H     -0.395911    0.798161    0.779407
H     -2.365106    2.222072    1.205221
H      2.927383   -0.573257    0.126642
H      0.628320    0.597695   -1.510776
H      2.399508    2.140498   -2.128051
