17

C     -1.246122    1.015880    0.894025
C     -1.078607   -0.008501   -0.234353
C      0.269651   -0.771097   -0.184432
C      1.458588    0.147150   -0.341443
O      1.995548    0.686650    0.663795
O      1.939350    0.433072   -1.615538
N      0.368872   -1.592017    1.027395
O     -1.211867    0.653455   -1.466284
H     -2.228119    1.524130    0.788415
H     -0.451420    1.789523    0.851250
H     -1.228570    0.520290    1.886424
H     -1.903791   -0.751579   -0.127467
H      0.277581   -1.466723   -1.053495
H      2.725300    1.058676   -1.746134
H      0.526492   -0.986128    1.864536
H      1.206641   -2.212617    0.939188
H     -1.419528   -0.040165   -2.145881
