40

C     -5.623532    1.629677    1.235980
C     -4.529891    0.583415    1.489662
C     -4.843806   -0.754257    0.801556
N     -3.188247    1.103380    1.152672
C     -2.933559    1.330697   -0.287286
C     -1.970563    0.285303   -0.900959
C     -0.507573    0.540739   -0.502744
O      0.325361   -0.458878   -1.085829
C      1.718097   -0.520347   -0.931543
C      2.436248    0.419740   -0.167830
C      3.825066    0.314807   -0.045382
C      4.517826   -0.721984   -0.689518
C      3.799569   -1.665619   -1.439804
C      2.411198   -1.560052   -1.562078
C      6.007150   -0.853223   -0.530495
C      6.323781   -1.685073    0.670469
O      6.455954   -2.933166    0.557521
O      6.428104   -1.084498    1.921139
O     -2.094035    0.276678   -2.301638
H     -5.812158    1.776362    0.152938
H     -6.574241    1.300897    1.707597
H     -5.329773    2.601526    1.686406
H     -4.539718    0.386862    2.585512
H     -5.800503   -1.162020    1.191823
H     -4.941103   -0.636123   -0.297335
H     -4.041799   -1.490670    1.018993
H     -2.469419    0.471423    1.575068
H     -2.497718    2.345564   -0.407362
H     -3.873118    1.339182   -0.876750
H     -2.258009   -0.724076   -0.537379
H     -0.190486    1.544036   -0.862899
H     -0.400074    0.504224    0.601818
H      1.931821    1.232135    0.337032
H      4.360905    1.041441    0.552922
H      4.314420   -2.483318   -1.928933
H      1.869694   -2.292179   -2.147769
H      6.453039   -1.316973   -1.437580
H      6.471322    0.150290   -0.416246
H      6.625144   -1.636349    2.747451
H     -1.855375    1.183695   -2.629195
