28

C      2.299856   -0.143444   -0.782888
C      3.696834   -0.134117   -0.838163
C      4.454582    0.208732    0.296742
C      3.783583    0.541531    1.486426
C      2.386612    0.531680    1.539898
C      1.635869    0.190432    0.410065
N      0.206218    0.190847    0.500999
N     -0.535482   -0.109602   -0.488695
C     -1.966178   -0.109746   -0.399623
C     -2.721496   -0.451865   -1.532192
C     -4.122551   -0.457929   -1.465386
C     -4.774299   -0.123434   -0.271018
C     -4.023138    0.217363    0.857256
C     -2.626819    0.225269    0.797099
O     -6.165321   -0.126833   -0.195649
O     -2.074014   -0.784898   -2.721250
N      5.892974    0.219649    0.244360
O      6.494302   -0.075040   -0.809508
O      6.630705    0.555536    1.356499
H      1.741317   -0.411041   -1.670743
H      4.184143   -0.395147   -1.768832
H      4.337831    0.809679    2.376475
H      1.886374    0.790793    2.464794
H     -4.703246   -0.722155   -2.340264
H     -4.522335    0.476543    1.782338
H     -2.065774    0.492453    1.683404
H     -6.738443   -0.369154   -0.995463
H     -2.592107   -1.036103   -3.555127
