13

C     -1.102021   -0.433656    0.232247
C      0.128525    0.478475    0.265556
C      1.366399   -0.334137    0.531802
O      1.912922   -0.289998    1.665349
O      1.902799   -1.160710   -0.452265
O      0.252286    1.148594   -0.961435
O     -2.271667    0.328103    0.096872
H     -1.020350   -1.173331   -0.597786
H     -1.166098   -1.001068    1.185764
H     -0.011040    1.221159    1.086256
H      1.479454   -1.229419   -1.369910
H      0.888362    1.897192   -0.815388
H     -2.359571    0.548796   -0.867061
