8

C     -0.011149    0.486797   -0.140292
O     -0.038855    1.696683   -0.488968
N      1.205562   -0.252016   -0.234623
N     -1.196601   -0.139295    0.347396
H      1.240392   -1.255417    0.051514
H      2.074124    0.204763   -0.591370
H     -2.087976    0.400067    0.417063
H     -1.185497   -1.141583    0.639279
