16

C     -2.398592   -0.493188   -0.570535
C     -1.270406   -1.310917    0.048256
C     -0.224513   -0.411337    0.636842
O     -0.293897   -0.100406    1.857348
C      0.846473    0.136382   -0.219060
C      1.794269    0.950077    0.255745
C      2.844829    1.479908   -0.620197
O      3.727608    2.244710   -0.151438
H     -2.006471    0.149493   -1.387685
H     -2.879166    0.146180    0.200702
H     -3.164524   -1.176974   -0.993251
H     -0.815846   -1.962343   -0.729225
H     -1.687512   -1.969210    0.841026
H      0.853643   -0.136447   -1.268396
H      1.802419    1.233429    1.301649
H      2.871686    1.220646   -1.671267
