15

C      2.876451   -0.494466   -0.158748
C      1.413486   -0.714074   -0.372496
C      0.512550    0.140889    0.114862
C     -0.928753   -0.074014   -0.094812
C     -1.828716    0.784304    0.394692
C     -3.275983    0.602545    0.205427
O     -3.737049   -0.380846   -0.433400
H      3.452616   -1.312320   -0.639887
H      3.104039   -0.486823    0.928224
H      3.184330    0.473434   -0.607905
H      1.094297   -1.584959   -0.933580
H      0.846574    1.008115    0.674435
H     -1.255721   -0.942949   -0.655085
H     -1.499009    1.651787    0.954200
H     -3.959112    1.329377    0.624074
