18

C      3.106853   -0.111946    0.283243
C      1.822820    0.199087    1.035305
O      0.717621    0.132876    0.140285
C     -0.597457    0.373382    0.548192
O     -0.856698    0.646558    1.752735
C     -1.710954    0.261211   -0.452196
C     -2.414860   -1.084845   -0.305401
O     -2.640510    1.295293   -0.262190
H      3.053605   -1.132149   -0.152472
H      3.256728    0.626199   -0.532946
H      3.970736   -0.061184    0.979028
H      1.891149    1.218784    1.472782
H      1.688137   -0.541254    1.853604
H     -1.287515    0.320575   -1.481615
H     -2.863250   -1.182315    0.706879
H     -1.693882   -1.915288   -0.465298
H     -3.223153   -1.170111   -1.062428
H     -2.219371    2.125125   -0.609243
