18

C     -2.905679    0.366351   -0.124169
C     -1.982944    1.405870    0.001438
C     -0.615271    1.127144    0.093575
C     -0.153729   -0.207472    0.060566
C     -1.098538   -1.242745   -0.066539
C     -2.463782   -0.956693   -0.158119
C      1.284640   -0.577988    0.153473
C      2.294465    0.296690    0.277388
C      3.698910   -0.134987    0.364489
O      4.017607   -1.353509    0.326302
H     -3.963089    0.586250   -0.195189
H     -2.327892    2.431607    0.027574
H      0.059094    1.963823    0.189338
H     -0.779772   -2.277753   -0.095192
H     -3.179634   -1.762713   -0.255549
H      1.522428   -1.635233    0.117325
H      2.117663    1.359743    0.318593
H      4.475523    0.611613    0.463608
