21

C      3.709659   -0.447567   -0.338448
C      2.994696    0.342122    0.717015
O      3.673199    0.923996    1.604963
C      1.522233    0.464633    0.758122
C      0.709525   -0.146543   -0.117224
C     -0.769859   -0.038431   -0.078550
C     -1.534460   -1.033077   -0.713131
C     -2.931011   -0.966065   -0.710540
C     -3.579918    0.099655   -0.084062
C     -2.833220    1.103830    0.535516
C     -1.435943    1.041965    0.536976
H      3.453044   -0.052953   -1.343882
H      3.418070   -1.516560   -0.270894
H      4.809608   -0.372993   -0.201974
H      1.107387    1.060257    1.559736
H      1.134792   -0.792832   -0.874652
H     -1.049848   -1.868172   -1.204499
H     -3.510256   -1.740942   -1.195932
H     -4.661057    0.150964   -0.084552
H     -3.337570    1.936213    1.009272
H     -0.889071    1.852501    0.997893
