24

C      4.905167    0.029396   -0.659917
C      4.113505   -1.272390   -0.707498
O      2.736341   -1.015124   -0.975628
C      1.845080   -0.514663   -0.020150
O      2.225428   -0.309848    1.166006
C      0.456090   -0.239389   -0.421608
C     -0.456089    0.239394    0.433496
C     -1.845080    0.514666    0.032039
O     -2.225428    0.309853   -1.154117
O     -2.736342    1.015124    0.987518
C     -4.113506    1.272388    0.719389
C     -4.905166   -0.029399    0.671805
H      5.981938   -0.194054   -0.506689
H      4.784504    0.581184   -1.616088
H      4.551532    0.667946    0.176202
H      4.519738   -1.906633   -1.523340
H      4.225324   -1.827949    0.249007
H      0.183244   -0.437808   -1.451027
H     -0.183244    0.437813    1.462914
H     -4.225327    1.827949   -0.237114
H     -4.519740    1.906628    1.535233
H     -5.981938    0.194050    0.518583
H     -4.784498   -0.581192    1.627973
H     -4.551534   -0.667943   -0.164320
