37

C      2.835904   -1.123088    0.800492
C      3.195803   -0.141106   -0.289452
C      2.255918    0.447799   -1.055492
C      0.796543    0.306344   -0.861816
C     -0.013682    0.013555   -1.963404
C     -1.399417   -0.097546   -1.818489
C     -2.017969    0.101281   -0.561432
C     -1.187268    0.430682    0.532783
C      0.197038    0.539881    0.382822
C     -3.542575   -0.011278   -0.353794
C     -4.096916    1.345377    0.132089
C     -3.839997   -1.095671    0.704988
C     -4.304212   -0.396009   -1.645121
C      4.622131    0.109592   -0.622611
C      5.609406    0.261436    0.276572
C      6.952256    0.501238   -0.182490
N      8.032055    0.694031   -0.551617
C      5.378021    0.276490    1.699478
N      5.196149    0.290475    2.842443
H      3.671657   -1.833375    0.973789
H      1.952347   -1.731879    0.514125
H      2.622995   -0.584220    1.746254
H      2.571705    1.040648   -1.907247
H      0.430066   -0.142006   -2.939581
H     -1.967816   -0.338261   -2.704141
H     -1.606902    0.615274    1.512197
H      0.795411    0.829597    1.236508
H     -3.669176    1.632430    1.115390
H     -3.855656    2.145920   -0.600383
H     -5.201475    1.300628    0.249808
H     -4.935848   -1.226226    0.839076
H     -3.407855   -2.070562    0.391230
H     -3.415176   -0.828427    1.694993
H     -3.959970   -1.380680   -2.029139
H     -5.395798   -0.476787   -1.449832
H     -4.164526    0.375587   -2.432883
H      4.866830    0.218859   -1.674815
