35

C      4.502843   -0.547485    0.776555
C      5.273940    0.469194    1.107517
O      5.341590    1.410423    0.096029
C      4.550834    1.016246   -1.015198
C      3.950291   -0.351923   -0.596573
C      2.484010   -0.076406   -0.578296
C      2.262531    1.228531   -0.904693
O      3.439428    1.897591   -1.171057
C      0.985600    1.770064   -0.927256
C     -0.111864    0.935384   -0.627291
C      0.099105   -0.441888   -0.327734
C      1.435463   -0.939803   -0.252747
O      1.754756   -2.234606    0.163171
C     -1.093713   -1.318488   -0.165747
O     -0.985890   -2.565768   -0.306913
C     -2.437885   -0.720789    0.050974
C     -2.625431    0.657997   -0.188398
C     -1.482262    1.496644   -0.613759
O     -1.673623    2.698607   -0.947828
C     -3.900200    1.227938   -0.023715
C     -4.982686    0.442003    0.382566
C     -4.798689   -0.918082    0.628223
C     -3.537427   -1.506764    0.468376
O     -3.380234   -2.867357    0.734352
O     -6.246633    1.004555    0.547400
H      4.303423   -1.396217    1.417524
H      5.791672    0.562340    2.052621
H      5.156499    0.956955   -1.944513
H      4.225367   -1.174938   -1.290385
H      0.854052    2.817271   -1.168276
H      1.113581   -2.839769    0.655708
H     -4.056905    2.283960   -0.205954
H     -5.640445   -1.520180    0.947077
H     -4.156166   -3.444638    1.037131
H     -6.414932    1.989400    0.378071
