29

C      5.134706    0.675607   -0.481764
C      4.221584    0.931677    0.543148
C      2.910571    0.452860    0.452988
C      2.497277   -0.284339   -0.676533
C      3.432351   -0.548687   -1.692531
C      4.741324   -0.066692   -1.596933
C      1.122851   -0.825171   -0.818062
C      0.058897   -0.334535   -0.166074
C     -1.298370   -0.895779   -0.339240
O     -1.476559   -1.911521   -1.065919
C     -2.461255   -0.256118    0.315021
C     -2.606494    1.141507    0.235835
C     -3.721889    1.773105    0.790368
C     -4.707257    1.019577    1.427770
C     -4.574338   -0.366817    1.522686
C     -3.454720   -1.013582    0.984272
O     -3.350339   -2.395578    1.156470
H      6.148918    1.046349   -0.408453
H      4.531719    1.496417    1.412962
H      2.239653    0.642804    1.278977
H      3.146683   -1.122475   -2.565888
H      5.451327   -0.269987   -2.388248
H      0.977893   -1.634338   -1.524726
H      0.169142    0.511041    0.498304
H     -1.867618    1.743876   -0.278516
H     -3.826704    2.847930    0.717058
H     -5.573322    1.510515    1.852571
H     -5.338291   -0.942016    2.030588
H     -2.527739   -2.925631    0.901519
