16

C      0.984362   -0.791559   -0.701670
C     -0.000850    0.040979    0.143245
C     -0.125152    1.455006   -0.451006
C     -1.384020   -0.633470    0.138979
N      0.478706    0.142959    1.527477
H      1.989375   -0.317526   -0.708484
H      0.628178   -0.873401   -1.751369
H      1.085734   -1.816689   -0.284972
H     -0.819729    2.071487    0.159463
H     -0.512442    1.412150   -1.492052
H      0.864710    1.959967   -0.466417
H     -1.318044   -1.661247    0.556559
H     -2.099779   -0.052131    0.759376
H     -1.786171   -0.700980   -0.895101
H      1.429057    0.581474    1.535446
H      0.586065   -0.817018    1.930525
