15

C     -1.608294   -1.361428    0.293608
C     -0.483321   -0.567009    0.128298
C     -0.592460    0.741571   -0.207251
C     -1.838101    1.322841   -0.394890
N     -2.936229    0.526689   -0.228275
N     -2.825296   -0.770393    0.104414
N      0.622019    1.310604   -0.312491
C      1.449001    0.270628   -0.021960
N      0.808315   -0.892361    0.252480
N      2.869134    0.395132   -0.007789
H     -1.532492   -2.406818    0.561302
H     -1.943261    2.365630   -0.662871
H      1.222668   -1.818291    0.500772
H      3.468998   -0.428223    0.220441
H      3.319319    1.311427   -0.225787
