16

C     -2.154773    0.303978   -0.111895
C     -0.803993   -0.187603   -0.628342
C      0.345130    0.187717    0.327643
C      1.705763   -0.227685   -0.257160
O      2.743044    0.116369    0.621194
O      0.156470   -0.392132    1.595347
H     -2.141015    1.407299    0.016192
H     -2.948837    0.041896   -0.842476
H     -2.397822   -0.175867    0.859723
H     -0.621204    0.271227   -1.624645
H     -0.844953   -1.290929   -0.760750
H      0.350118    1.293112    0.450804
H      1.727311   -1.327141   -0.416312
H      1.865058    0.260154   -1.246150
H      2.869810    1.097794    0.540448
H      0.149893   -1.378189    1.476380
