22

C      2.784170    1.394679   -0.659951
C      1.846933    1.134808   -1.663646
C      0.817403    0.215202   -1.440406
C      0.724392   -0.457860   -0.210359
C      1.663378   -0.182241    0.797912
C      2.691445    0.737960    0.570280
C     -0.402262   -1.421493    0.046609
C     -1.540092   -0.723104    0.739855
N     -1.683348   -0.905462    2.022229
O     -2.698417   -0.368915    2.790078
C     -2.380267    0.233965   -0.018812
O     -2.667563    1.353854    0.480116
O     -2.820797   -0.060101   -1.306987
H      3.579672    2.107644   -0.834030
H      1.916284    1.648423   -2.613833
H      0.092925    0.029565   -2.223676
H      1.597041   -0.678061    1.758519
H      3.414335    0.944431    1.348910
H     -0.746542   -1.877608   -0.904672
H     -0.034300   -2.264395    0.672898
H     -3.500317    0.098788    2.387500
H     -2.654073   -0.960078   -1.738535
