24

C     -2.965320    0.152748   -0.361427
C     -1.623773   -0.605500   -0.360101
C     -0.424449    0.298600    0.043975
C      0.920808   -0.478598    0.061376
C      2.120026    0.464508    0.295316
C      3.412797   -0.266317    0.059876
O      3.908439   -0.994158    0.960697
O      4.042685   -0.179648   -1.175243
O      2.091188    0.973380    1.604693
O      0.903623   -1.474112    1.055917
O     -0.663811    0.919897    1.284105
O     -1.408096   -1.212602   -1.610694
O     -2.957812    1.201787   -1.293741
H     -3.775168   -0.555348   -0.638127
H     -3.200667    0.529304    0.660954
H     -1.717189   -1.418757    0.391809
H     -0.334436    1.102333   -0.719184
H      1.063890   -0.943475   -0.944370
H      2.058254    1.305430   -0.434738
H      2.696514    1.760569    1.620229
H      0.552535   -2.302384    0.636320
H     -0.804788    0.204867    1.958096
H     -1.268983   -0.490158   -2.277296
H     -2.626266    2.007633   -0.818442
