22

C     -1.582670   -0.795835   -1.364264
C     -1.169456    0.294952   -0.362415
C     -1.752149   -0.011859    1.027022
C      0.373219    0.554615   -0.355973
C      1.213982   -0.491901    0.430656
C      2.685134   -0.196748    0.306920
O      3.331571    0.232869    1.298552
O      3.333570   -0.377418   -0.908838
O      0.973723   -1.780501   -0.068558
C      0.649691    1.956467    0.138144
O      0.672071    2.214493    1.371201
O      0.840036    2.984843   -0.776480
H     -2.686823   -0.791186   -1.488737
H     -1.287299   -1.806143   -1.016662
H     -1.129488   -0.605293   -2.360130
H     -1.663252    1.227763   -0.719518
H     -1.472415    0.777190    1.754560
H     -2.861318   -0.044043    0.972011
H     -1.396672   -0.995094    1.401028
H      0.719625    0.525073   -1.413864
H      0.931042   -0.450802    1.508786
H      1.277878   -2.421443    0.626555
