24

C      3.770020    1.087988   -0.724106
C      3.161544   -0.251048   -0.339705
O      1.797827   -0.067918    0.025481
C      0.976539   -1.125733    0.425413
O      1.419184   -2.306380    0.463120
C     -0.454844   -0.856831    0.764663
C     -1.315796   -0.869960   -0.504612
C     -2.802208   -0.634258   -0.198044
C     -3.065635    0.748856    0.335761
C     -2.953170    1.834462   -0.435099
H      3.716052    1.789789    0.134990
H      4.833864    0.948345   -1.009964
H      3.218691    1.521921   -1.585068
H      3.228493   -0.946425   -1.204474
H      3.725692   -0.678562    0.517487
H     -0.523231    0.134380    1.262023
H     -0.818860   -1.628799    1.477528
H     -0.950164   -0.099528   -1.218770
H     -1.216035   -1.861480   -0.998743
H     -3.397352   -0.787136   -1.124528
H     -3.148702   -1.384059    0.545796
H     -3.382104    0.863222    1.368284
H     -3.161732    2.816451   -0.023278
H     -2.658076    1.752703   -1.476742
