26

C      4.376437   -0.156511   -0.255789
C      2.878782   -0.435752   -0.339471
C      2.241445   -0.454659    1.054950
C      0.774576   -0.765355    0.976343
C     -0.117712    0.132003    0.548209
C     -1.567567   -0.059584    0.438321
C     -2.377110   -1.160776    0.724853
C     -3.761868   -1.037752    0.510892
C     -4.305944    0.168784    0.019997
C     -3.470366    1.263823   -0.261759
C     -2.102647    1.114792   -0.040600
C     -0.998167    2.040952   -0.230731
O     -1.088868    3.221535   -0.657501
O      0.198037    1.428491    0.131958
H      4.883799   -0.945592    0.339203
H      4.810733   -0.148221   -1.277701
H      4.558275    0.832865    0.215575
H      2.722785   -1.419248   -0.834588
H      2.404294    0.350627   -0.965258
H      2.734698   -1.239030    1.669308
H      2.391768    0.522964    1.563599
H      0.437756   -1.740039    1.306033
H     -1.957818   -2.084548    1.100336
H     -4.414627   -1.874240    0.723981
H     -5.372935    0.251611   -0.140802
H     -3.877754    2.192860   -0.638722
