40

C      5.190545   -1.001198    0.922887
C      3.750692   -0.672335    1.318311
C      2.952496   -0.013429    0.173628
C      3.460444    1.397236   -0.155129
C      1.493998    0.041588    0.533071
O      1.112620    0.717572    1.528773
O      0.571592   -0.673597   -0.240034
C     -0.841358   -0.659493   -0.009247
C     -1.445760   -1.935457   -0.624861
C     -0.630161   -3.148139   -0.289362
O     -0.737721   -3.691043    0.841771
O      0.280959   -3.650702   -1.209759
C     -1.419006    0.658191   -0.617231
N     -2.852059    1.009310   -0.325537
C     -3.253321    0.665964    1.059452
C     -3.006309    2.477965   -0.492539
C     -3.774769    0.360062   -1.290044
H      5.777072   -0.072810    0.764187
H      5.209651   -1.615505   -0.002293
H      5.674300   -1.578250    1.739002
H      3.252819   -1.624766    1.606712
H      3.759175   -0.011453    2.212909
H      3.056106   -0.639392   -0.740580
H      2.807544    1.869105   -0.920865
H      3.465476    2.037241    0.753334
H      4.487485    1.354408   -0.572818
H     -1.010237   -0.695492    1.088603
H     -2.460348   -2.110992   -0.218116
H     -1.511235   -1.836524   -1.730006
H     -1.238210    0.647863   -1.716283
H     -0.759303    1.470568   -0.235744
H     -3.313125   -0.432846    1.207343
H     -2.533195    1.086794    1.796298
H     -4.262572    1.071553    1.297500
H     -4.062902    2.798690   -0.346482
H     -2.691818    2.799038   -1.511558
H     -2.388411    3.034966    0.247832
H     -3.481032    0.580742   -2.340517
H     -3.811090   -0.735704   -1.166981
H     -4.819033    0.720274   -1.149550
