18

C      2.051373   -1.186923   -1.194579
C      0.949035   -1.815985   -0.609993
C     -0.160533   -1.061941   -0.215239
C     -0.165059    0.334587   -0.385037
C      0.933739    0.953590   -1.001138
C      2.041664    0.196088   -1.394435
C     -1.342922    1.150987   -0.021580
C     -1.991777    1.088591    1.150013
C     -1.551449    0.286687    2.302431
O     -2.271127    0.228949    3.333248
H      2.908540   -1.772118   -1.501610
H      0.950368   -2.889370   -0.470960
H     -1.019051   -1.568728    0.207516
H      0.936674    2.023945   -1.168127
H      2.891105    0.681013   -1.857897
H     -1.687055    1.875982   -0.749552
H     -2.865120    1.716238    1.281177
H     -0.608407   -0.241593    2.295762
