33

C     -4.142880   -0.820649    0.402163
C     -3.321405    0.453079    0.603307
C     -1.827457    0.272434    0.155524
N     -1.579979    1.367486   -0.781409
C     -2.793724    2.049460   -0.988802
O     -2.918230    3.022646   -1.777331
N     -3.853050    1.530117   -0.222906
C     -0.849539    0.338738    1.352180
C      0.439949   -0.475616    1.146496
C      1.327578    0.064549    0.017585
C      2.699019   -0.621493    0.018904
C      3.573832   -0.102644   -1.126004
C      4.910282   -0.774267   -1.109297
O      5.088456   -1.842822   -1.753020
O      5.944109   -0.241027   -0.346045
H     -3.715948   -1.645338    1.011445
H     -4.141971   -1.120023   -0.667943
H     -5.191537   -0.648148    0.724755
H     -3.394414    0.765113    1.668572
H     -1.701865   -0.691697   -0.386666
H     -0.695199    1.559572   -1.299461
H     -4.819823    1.922346   -0.174501
H     -1.344454   -0.087082    2.252429
H     -0.600514    1.396317    1.590417
H      1.011223   -0.448217    2.100557
H      0.181833   -1.538126    0.942747
H      1.465650    1.161078    0.143115
H      0.835212   -0.131573   -0.958603
H      3.208978   -0.424857    0.988184
H      2.560993   -1.720145   -0.091863
H      3.075613   -0.296062   -2.101286
H      3.719069    0.994545   -1.022153
H      6.850193   -0.692648   -0.311089
