28

C      2.768362   -0.594238   -0.939090
C      2.379026    0.559795   -0.049480
C      3.346161    1.297623    0.517284
C      0.918251    0.854159    0.243935
C      0.324994   -0.230056    1.162887
C     -1.197597   -0.096504    1.223784
C     -1.818150   -0.313689   -0.183219
C     -1.120845    0.572157   -1.199254
C      0.139563    1.015618   -1.045080
C     -3.314414    0.064841   -0.163023
O     -1.644288   -1.650308   -0.623266
O     -2.295567   -2.449404    0.204900
H      3.348179   -0.218938   -1.808645
H      3.390542   -1.316179   -0.368933
H      1.873492   -1.129549   -1.319997
H      3.108417    2.123470    1.180720
H      4.393252    1.082234    0.325226
H      0.830844    1.826814    0.778768
H      0.588808   -1.247647    0.800031
H      0.744868   -0.116308    2.186130
H     -1.603546   -0.825614    1.957255
H     -1.454932    0.918980    1.600755
H     -1.613616    0.758285   -2.150037
H      0.577483    1.612609   -1.840380
H     -3.785582   -0.172314   -1.141211
H     -3.440056    1.151317    0.036784
H     -3.855300   -0.493581    0.630605
H     -1.588348   -2.983573    0.649039
