26

C      2.041685   -0.363884    1.032460
C      1.779687    0.037162   -0.433204
C      1.307744   -1.164212   -1.243246
C     -0.203436   -1.208670   -1.062063
C     -0.660837    0.231659   -0.755235
C      0.639636    1.054896   -0.607583
C      0.591063    2.109456    0.461979
O      1.461695    3.018936    0.484323
O     -0.379074    2.067733    1.458197
C     -1.429677    1.150920    1.443147
C     -1.601791    0.277086    0.441453
C     -2.831971   -0.590013    0.452364
H      1.110756   -0.719738    1.523083
H      2.800496   -1.173830    1.075969
H      2.443180    0.499402    1.603353
H      2.724479    0.438274   -0.863342
H      1.543001   -0.996596   -2.318053
H      1.786777   -2.116021   -0.924259
H     -0.435439   -1.899057   -0.220295
H     -0.695610   -1.597905   -1.980005
H     -1.225380    0.623131   -1.631300
H      0.812411    1.580107   -1.575398
H     -2.132505    1.171407    2.267241
H     -2.786363   -1.294045    1.309899
H     -2.919331   -1.177565   -0.485503
H     -3.741198    0.041368    0.546018
