15

C     -1.249924   -0.156958    0.088982
C      0.074726    0.601719    0.132677
N      1.209824   -0.318136    0.069929
N     -0.004913    0.031448   -0.000137
O     -0.197374    1.263368   -0.005686
O      1.276427   -0.463637    0.038203
O     -1.074140   -0.831179   -0.032380
H     -2.093501    0.563387    0.137954
H     -1.329758   -0.736283   -0.855253
H     -1.323319   -0.851638    0.952464
H      0.125730    1.193166    1.073357
H      0.119318    1.307965   -0.725530
H      1.187472   -0.972381    0.885764
H      1.181382   -0.863383   -0.822270
H      2.098051    0.232542    0.101904
