22

C      2.808888   -0.868552   -0.905361
C      1.949995   -1.704742   -0.187027
C      0.857844   -1.164906    0.499258
C      0.619076    0.219932    0.473347
C      1.484989    1.053058   -0.255340
C      2.576254    0.509007   -0.939837
C     -0.573756    0.802584    1.193008
C     -1.805189    0.950596    0.283345
C     -2.297286   -0.388996   -0.192487
O     -1.911078   -0.855686   -1.298248
O     -3.146915   -1.137144    0.616163
O     -1.501727    1.783637   -0.806505
H      3.653398   -1.288122   -1.436590
H      2.129250   -2.771873   -0.163623
H      0.196715   -1.825247    1.046769
H      1.313983    2.121754   -0.293699
H      3.240659    1.155387   -1.498605
H     -0.305408    1.802524    1.599168
H     -0.835491    0.169383    2.069636
H     -2.612609    1.421740    0.890574
H     -3.473697   -2.049718    0.321981
H     -2.367893    2.065383   -1.202382
