34

C      0.033213   -1.217164    1.002262
C     -1.456358   -1.363333    1.339153
C     -2.334956   -0.725227    0.287745
C     -3.686867   -1.095231    0.159003
C     -4.491956   -0.472405   -0.805736
C     -3.964383    0.523450   -1.632905
C     -2.625017    0.907243   -1.493566
C     -1.814511    0.297953   -0.531497
O     -0.478640    0.696749   -0.406770
C      0.355821    0.245466    0.661838
C      1.808661    0.397133    0.282119
C      2.738610    0.873986    1.220864
C      4.095606    0.988340    0.884710
C      4.531199    0.613779   -0.397733
C      3.609220    0.125248   -1.328677
C      2.258153    0.011459   -0.992103
O      5.873116    0.717028   -0.762619
O      5.010524    1.469807    1.819847
O     -4.779903    1.127231   -2.587390
O     -4.226537   -2.078102    0.988524
H      0.641901   -1.548560    1.871800
H      0.275849   -1.870388    0.134770
H     -1.663168   -0.879529    2.318227
H     -1.690909   -2.445871    1.431181
H     -5.530432   -0.760298   -0.911775
H     -2.213628    1.681932   -2.128408
H      0.134114    0.872144    1.554872
H      2.410785    1.155865    2.214026
H      3.941973   -0.170607   -2.315538
H      1.562613   -0.379466   -1.724460
H      6.579059    1.063960   -0.124396
H      4.722256    1.745851    2.751290
H     -4.428639    1.852639   -3.201641
H     -5.196770   -2.361082    0.914998
