49

C     -2.734490    2.062019    1.764439
C     -2.967312    0.763938    1.028004
C     -2.323225    0.496911   -0.141959
C     -2.551157   -0.800573   -0.933494
C     -3.831606   -1.546975   -0.469712
C     -3.954039   -1.569080    1.049143
C     -4.047835   -0.141801    1.575347
C     -2.712634   -0.484191   -2.437723
C     -1.318377   -1.716323   -0.755189
C     -1.278596    1.425551   -0.635824
C     -0.065960    1.459338   -0.073786
C      1.016981    2.339248   -0.578393
C      2.310531    1.964608   -0.546105
C      2.783934    0.642851   -0.077287
C      4.091955    0.363514   -0.029910
C      4.623534   -0.949846    0.412373
C      5.804085   -1.356071   -0.092697
C      6.427500   -2.658078    0.200228
O      7.550003   -2.936902   -0.295802
C      3.846936   -1.801245    1.390879
C      0.665835    3.676522   -1.178507
H     -1.699628    2.093475    2.164429
H     -2.895316    2.923449    1.082320
H     -3.434668    2.172026    2.619323
H     -4.737690   -1.048037   -0.882836
H     -3.837560   -2.591223   -0.852714
H     -3.086069   -2.089200    1.507263
H     -4.871889   -2.126240    1.336989
H     -3.982615   -0.175450    2.684140
H     -5.037301    0.286044    1.305252
H     -1.779270   -0.061390   -2.867417
H     -2.955550   -1.407448   -3.007189
H     -3.531843    0.250114   -2.595737
H     -1.474537   -2.693443   -1.260506
H     -1.109647   -1.901991    0.318957
H     -0.411857   -1.248746   -1.196025
H     -1.494641    2.019783   -1.514944
H      0.131263    0.809926    0.769866
H      3.058076    2.657487   -0.917867
H      2.068615   -0.123288    0.183153
H      4.800000    1.110947   -0.371688
H      6.334090   -0.708174   -0.782576
H      5.941244   -3.393078    0.825941
H      3.074180   -1.208582    1.922280
H      3.356655   -2.639786    0.853409
H      4.517948   -2.202769    2.178770
H      1.467481    4.423380   -0.991027
H     -0.268376    4.073047   -0.727070
H      0.522843    3.565751   -2.273832
