15

C     -1.838408   -0.961617   -0.641921
C     -0.633815   -0.256585   -0.078621
C      0.531428   -0.335913   -0.753309
C      1.846304    0.127725   -0.268771
O      2.086907    0.249883    0.962180
O      2.860960    0.359384   -1.191463
C     -0.786124    0.478060    1.197101
O     -1.568161    0.040923    2.083620
O     -0.125879    1.686676    1.401803
H     -2.776984   -0.555774   -0.207998
H     -1.892722   -0.827927   -1.743849
H     -1.775652   -2.045448   -0.409644
H      0.534138   -0.816831   -1.724887
H      3.782064    0.653141   -0.888758
H     -0.244055    2.204303    2.264517
