15

C     -2.327867    0.149324   -0.135357
C     -0.828122    0.207608   -0.094069
C     -0.137153   -0.889456    0.259036
C      1.338647   -0.997120    0.348714
O      1.831787   -2.103193    0.696785
C      2.274429    0.135249    0.048671
O     -0.182358    1.398430   -0.422805
H     -2.752877    1.127456   -0.442663
H     -2.723709   -0.105843    0.870512
H     -2.655900   -0.621508   -0.864593
H     -0.696626   -1.786052    0.503686
H      2.080645    0.981440    0.740352
H      3.328720   -0.187231    0.185717
H      2.148812    0.462807   -1.004392
H     -0.698426    2.228090   -0.689593
