29

C      2.667849   -0.229609   -1.003749
C      1.908299    0.836004   -0.249631
C      1.071924    0.534966    0.768075
C      0.786526   -0.864778    1.257727
C     -0.389589   -1.514151    0.511604
C     -1.694728   -0.760976    0.720043
C     -2.366496   -0.147781   -0.281883
C     -1.952496   -0.157301   -1.730874
O     -0.760728    0.555567   -1.913052
C     -2.290728   -0.714215    2.104058
C      2.088259    2.283962   -0.627171
H      1.963181   -0.956445   -1.456489
H      3.360149   -0.759958   -0.317152
H      3.274292    0.207312   -1.823963
H      0.553062    1.343664    1.277272
H      1.685714   -1.508811    1.164820
H      0.558274   -0.815582    2.343238
H     -0.522243   -2.547076    0.899005
H     -0.126789   -1.622838   -0.558269
H     -3.298529    0.361882   -0.049342
H     -2.760576    0.293401   -2.350091
H     -1.819048   -1.201979   -2.081633
H     -0.988015    1.517035   -1.814540
H     -3.329529   -1.107113    2.082479
H     -2.304051    0.333803    2.471053
H     -1.708025   -1.333697    2.817263
H      1.110882    2.721737   -0.920290
H      2.492135    2.849404    0.239213
H      2.791024    2.403573   -1.477722
