22

C     -3.293306   -0.863821    0.062509
C     -1.810736   -0.787989    0.276863
C     -1.096503    0.344594    0.127479
C     -1.772527    1.649608   -0.215527
C      0.361705    0.347679    0.402227
O      0.902388    1.398784    0.842563
N      1.168163   -0.817058    0.156283
C      2.584203   -0.874771    0.509962
C      3.395260   -0.081548   -0.468752
O      3.574843   -0.523163   -1.634058
O      3.932956    1.152702   -0.114822
H     -3.815702   -0.147538    0.731003
H     -3.538612   -0.638520   -0.996404
H     -3.652243   -1.888333    0.295016
H     -1.321173   -1.698378    0.599391
H     -1.029130    2.425894   -0.494287
H     -2.352512    2.012279    0.658967
H     -2.452838    1.522255   -1.083380
H      0.755817   -1.640659   -0.336331
H      2.927060   -1.931646    0.484495
H      2.733580   -0.499757    1.545188
H      3.799307    1.539388    0.811767
