37

C      4.989745    0.455200   -2.611652
O      5.004403   -0.585163   -1.639529
C      4.048414   -0.737269   -0.622769
C      4.186279   -1.810637    0.267011
C      3.249948   -1.998956    1.290391
C      2.176608   -1.118178    1.436564
C      2.028921   -0.024878    0.562092
C      2.963523    0.149312   -0.472541
C      0.899337    0.931382    0.667132
C      0.179657    1.117567    1.780446
C     -0.948389    2.105473    1.813586
O     -1.965047    1.739665    0.882352
C     -2.792278    0.620991    1.045744
O     -2.688612   -0.096530    2.079036
C     -3.786607    0.283040    0.003961
C     -3.896312    1.072520   -1.155419
C     -4.834159    0.753398   -2.142487
C     -5.670142   -0.354139   -1.983664
C     -5.570062   -1.145486   -0.837176
C     -4.634033   -0.831244    0.153151
O      5.257765   -2.690818    0.124514
H      4.059364    0.400618   -3.215505
H      5.065661    1.444700   -2.113306
H      5.859785    0.331029   -3.288366
H      3.349586   -2.835014    1.971058
H      1.457789   -1.315064    2.219442
H      2.844914    0.982497   -1.152851
H      0.669215    1.538707   -0.201607
H      0.406008    0.581536    2.691604
H     -1.375986    2.162163    2.837995
H     -0.561761    3.112316    1.548879
H     -3.258553    1.935256   -1.301294
H     -4.912400    1.365636   -3.031659
H     -6.395204   -0.599231   -2.748974
H     -6.218284   -2.003708   -0.715332
H     -4.574246   -1.459317    1.033196
H      5.385154   -3.477375    0.750638
