14

C     -0.151983   -1.208433   -0.032697
C      1.245045   -1.157122   -0.070094
C      1.902710    0.075681   -0.050757
C      1.162925    1.259786    0.006069
C     -0.234207    1.213510    0.043624
C     -0.907795   -0.023005    0.024617
N     -2.345580   -0.077284    0.063061
O     -3.021464    0.971358    0.113964
O     -3.000392   -1.287561    0.044333
O      3.290785    0.124028   -0.087996
H     -0.639646   -2.174452   -0.048622
H      1.816187   -2.075816   -0.114103
H      1.670251    2.216096    0.021147
H     -0.786835    2.143213    0.087455
