32

C      3.326868   -2.073681    0.054696
C      2.852691   -0.621180   -0.029482
C      2.360392   -0.324291   -1.420647
O      1.205222   -0.683901   -1.772863
O      3.187310    0.309386   -2.343742
N      1.788215   -0.370043    0.946377
C      1.342080    0.957346    1.258738
O      1.976026    1.959218    0.828766
C      0.082532    1.165210    2.041271
C     -1.071042    1.342917    1.102116
C     -1.515405    2.545561    0.560206
N     -2.506936    2.323923   -0.332502
C     -2.682374    0.991652   -0.370032
C     -3.578900    0.280403   -1.166447
C     -3.578372   -1.122744   -1.065163
C     -2.690425   -1.776104   -0.182129
C     -1.795185   -1.032706    0.608210
C     -1.820525    0.357312    0.488327
H      3.700582   -2.289380    1.078265
H      4.155531   -2.248158   -0.664803
H      2.494170   -2.772559   -0.177159
H      3.720353    0.033076    0.207355
H      4.128922    0.591763   -2.099638
H      1.299905   -1.178973    1.393337
H      0.185263    2.067749    2.681545
H     -0.103300    0.299224    2.711307
H     -1.120665    3.526077    0.792727
H     -3.015837    3.043458   -0.892636
H     -4.251373    0.789698   -1.844546
H     -4.261442   -1.705274   -1.669497
H     -2.698351   -2.856065   -0.113140
H     -1.115931   -1.528914    1.287689
