34

C     -2.250011   -1.430953   -0.507556
C     -1.289114   -2.478441    0.053855
C     -0.374377   -1.697521    0.927038
O      0.555861   -2.204305    1.534373
C     -0.718619   -0.249208    1.019030
C     -2.152825   -0.221286    0.435297
C     -2.630254    1.093412   -0.217724
C     -2.717187    2.212232    0.777131
O     -3.480476    2.114187    1.775278
O     -1.973909    3.372566    0.584878
C      0.353868    0.621945    0.313630
C      0.661858    0.190021   -1.107302
C      1.803185   -0.401555   -1.509054
C      2.993812   -0.675854   -0.626990
C      3.850472    0.581052   -0.450597
O      4.959222    0.300597    0.359258
H     -3.288968   -1.824968   -0.548795
H     -1.936308   -1.151408   -1.536537
H     -0.723755   -2.979732   -0.760930
H     -1.837248   -3.229227    0.662725
H     -0.764538    0.051143    2.089644
H     -2.850010   -0.438038    1.278907
H     -1.974583    1.388821   -1.060380
H     -3.645362    0.935308   -0.641885
H     -2.026827    4.138851    1.245237
H      1.264774    0.615031    0.944179
H      0.029799    1.680569    0.294834
H     -0.105895    0.337543   -1.857675
H      1.877174   -0.704997   -2.549599
H      2.675831   -1.080523    0.355876
H      3.616337   -1.457639   -1.113283
H      4.217034    0.916882   -1.444290
H      3.255978    1.413544   -0.012056
H      4.625059    0.261950    1.293483
