25

C     -3.773023    1.202015   -0.029861
C     -3.304828   -0.221415   -0.331190
C     -1.817647   -0.290287   -0.710896
C     -0.890342   -0.019316    0.483321
C      0.581781   -0.218929    0.092364
C      1.538200    0.046064    1.232599
O      1.093995    0.376600    2.365791
C      3.002297   -0.072182    1.067668
C      3.588883   -0.423615   -0.081978
C      5.048895   -0.524347   -0.184012
O      5.581339   -0.856961   -1.274829
H     -3.298958    1.584154    0.897683
H     -3.530490    1.878886   -0.876488
H     -4.873338    1.204127    0.119350
H     -3.506927   -0.873894    0.545920
H     -3.902674   -0.610724   -1.183675
H     -1.604109    0.432954   -1.528465
H     -1.611262   -1.310840   -1.101753
H     -1.030101    1.025975    0.833191
H     -1.146506   -0.713703    1.313799
H      0.828298    0.469387   -0.745159
H      0.725732   -1.265395   -0.254113
H      3.620980    0.139141    1.932876
H      3.000551   -0.642444   -0.963657
H      5.679253   -0.315251    0.671327
