14

C     -1.991378   -0.030550    0.667850
C     -0.769671   -0.738082    0.165918
C      0.360636   -0.102749   -0.198954
C      1.514371   -0.887650   -0.704877
O      1.336271   -2.040423   -1.182232
O      2.811359   -0.379891   -0.657074
N      0.461059    1.328511   -0.125988
H     -2.365657    0.678265   -0.100661
H     -2.790162   -0.771234    0.882089
H     -1.758572    0.515430    1.606252
H     -0.823466   -1.818905    0.103192
H      3.033407    0.496257   -0.202088
H     -0.276326    1.918141    0.318284
H      1.258129    1.832880   -0.571710
