50

C      1.509575   -0.083675   -0.047639
C      0.030998    0.374472    0.068387
C     -0.726939   -0.505034    1.095427
O     -0.849409   -1.826431    0.642217
C     -0.652935    0.305188   -1.321802
O     -1.954451    0.829467   -1.270260
N     -0.007757    1.766849    0.539757
O      1.597309   -1.390642   -0.548167
C     -0.119319    1.114742   -0.987682
C      0.009066    0.179881    0.243815
C      1.277552   -0.702943    0.124243
O      1.278246   -1.435003   -1.071821
C     -1.259247   -0.706319    0.369136
O     -1.455684   -1.478163   -0.785014
N      0.138992    1.008155    1.451860
O      1.005728    1.944851   -1.114328
C     -0.603376   -0.676517   -0.534011
C      0.605549   -1.055107   -0.091265
C      1.580807   -0.189259    0.595911
O      2.799004   -0.509175    0.586358
O      1.170833    0.924912    1.322556
C     -1.099036    0.712480   -0.618096
O     -0.302997    1.680445   -0.739246
O     -2.468491    0.957609   -0.647146
H      2.061669    0.605139   -0.726615
H      1.996731   -0.037151    0.952752
H     -0.184567   -0.496377    2.068120
H     -1.740848   -0.081166    1.274539
H     -1.342551   -2.316813    1.350167
H     -0.069750    0.909087   -2.050082
H     -0.665315   -0.738630   -1.713366
H     -2.562494    0.073975   -1.058657
H      0.482167    1.839072    1.461944
H      0.513567    2.380001   -0.129467
H      2.564999   -1.607332   -0.587255
H     -1.044804    1.731717   -0.909720
H     -0.213938    0.516411   -1.918664
H      1.328063   -1.404655    0.987640
H      2.184774   -0.058179    0.161114
H      2.114721   -1.969024   -1.068497
H     -1.161271   -1.378861    1.251377
H     -2.151155   -0.059534    0.531762
H     -2.275696   -2.013321   -0.623469
H      0.190234    0.392139    2.296574
H     -0.713583    1.605165    1.562685
H      0.867321    2.712941   -0.501011
H     -1.263052   -1.450511   -0.906785
H      0.877234   -2.097438   -0.208636
H      1.842910    1.500715    1.815483
H     -3.139384    0.201846   -0.575124
