42

C     -1.022413    0.545329   -2.224792
C      0.132860    0.399431   -1.238188
C     -0.324444   -0.032719    0.167647
C      0.892136   -0.328309    0.999692
O      1.447170    0.600381    1.648789
N      1.457495   -1.647245    1.002133
C      2.723334   -1.955262    1.662738
C      3.869659   -1.364112    0.888112
C      4.585226   -0.265823    1.394029
C      5.632443    0.292742    0.654397
C      5.969284   -0.237341   -0.594178
C      5.258510   -1.326337   -1.106141
C      4.210826   -1.887964   -0.369799
O     -1.068884    1.012750    0.804573
C     -2.460057    1.214538    0.760604
C     -3.359261    0.303776    0.167301
C     -4.742930    0.569795    0.149155
C     -5.220996    1.747243    0.752118
C     -4.332285    2.644832    1.346083
C     -2.962726    2.379639    1.348895
F     -6.549690    2.025002    0.768749
C     -5.719919   -0.396682   -0.478742
F     -5.073460   -1.442191   -1.115580
F     -6.542670   -0.918902    0.502448
F     -6.495696    0.267424   -1.411944
H     -1.598138   -0.401668   -2.291922
H     -1.693516    1.375294   -1.922206
H     -0.618332    0.780478   -3.231923
H      0.836047   -0.360505   -1.646264
H      0.676877    1.367418   -1.173926
H     -0.914676   -0.969275    0.113272
H      0.967760   -2.413046    0.486526
H      2.853592   -3.058194    1.711270
H      2.701523   -1.582606    2.710096
H      4.331819    0.159541    2.357102
H      6.181462    1.138249    1.048310
H      6.779347    0.196970   -1.165676
H      5.517844   -1.733942   -2.074672
H      3.662930   -2.727646   -0.779497
H     -2.997536   -0.606434   -0.281091
H     -4.705751    3.549964    1.807650
H     -2.284763    3.085407    1.812164
