46

C      3.183359    2.073142   -0.499782
C      3.482865    0.615189   -0.736000
C      2.831188   -0.409900   -0.002199
C      3.149324   -1.753812   -0.267745
C      4.118266   -2.084435   -1.222088
C      4.773604   -1.072601   -1.923962
C      4.461151    0.266203   -1.683343
O      4.436042   -3.416124   -1.479888
C      1.754568   -0.111607    1.017356
C      0.365181   -0.131330    0.360376
C     -0.756067    0.258336    1.359157
C     -2.148137   -0.345279    1.074981
C     -2.342807   -1.850936    0.867293
C     -3.802491   -1.957439    0.400294
C     -4.111388   -0.591464   -0.131078
O     -5.186654   -0.294372   -0.628902
C     -2.950753    0.348535   -0.033225
C     -3.296409    1.764168    0.462361
C     -2.023397    2.571654    0.824688
C     -0.892514    1.775169    1.473004
O     -0.038490    2.393706    2.089770
C     -2.268945    0.392857   -1.421863
H      3.667094    2.718464   -1.263649
H      3.562389    2.374536    0.499037
H      2.090688    2.258090   -0.551439
H      2.641400   -2.546613    0.268349
H      5.526242   -1.324321   -2.660411
H      4.984289    1.032347   -2.242299
H      3.978578   -4.174893   -0.988052
H      1.943184    0.864469    1.507407
H      1.787873   -0.874857    1.825991
H      0.375937    0.562158   -0.503077
H      0.202801   -1.151543   -0.036712
H     -0.464816   -0.128563    2.362747
H     -2.699512   -0.159302    2.033200
H     -2.175288   -2.418233    1.808619
H     -1.679598   -2.250298    0.073966
H     -4.472588   -2.185537    1.256942
H     -3.915004   -2.726478   -0.393674
H     -3.873055    2.311883   -0.314881
H     -3.948649    1.700015    1.362128
H     -1.622126    3.058137   -0.089507
H     -2.323842    3.390907    1.513426
H     -3.017887    0.642361   -2.204444
H     -1.489281    1.174652   -1.480748
H     -1.816323   -0.587040   -1.682126
