24

C     -3.081496    0.723118   -1.663595
C     -2.816793   -0.637839   -1.493663
C     -1.691535   -1.049561   -0.772751
C     -0.817759   -0.099522   -0.212686
C     -1.094894    1.270015   -0.391338
C     -2.221279    1.675952   -1.113156
C      0.400214   -0.550628    0.567999
C      0.319579   -0.062314    1.987527
O      0.789662    1.063520    2.306197
O     -0.320486   -0.841036    2.946506
N      1.634622   -0.083392   -0.074422
C      2.918255   -0.637238    0.246351
O      3.018986   -1.569966    1.088328
N      4.092275   -0.132428   -0.388092
H     -3.953027    1.039312   -2.222096
H     -3.484179   -1.375064   -1.921019
H     -1.504399   -2.109329   -0.652517
H     -0.438449    2.022644    0.026693
H     -2.426991    2.730244   -1.246010
H      0.422558   -1.662993    0.593644
H     -0.400368   -0.523125    3.904983
H      1.598154    0.701222   -0.764222
H      5.029375   -0.531428   -0.158029
H      4.027975    0.639836   -1.087601
