43

C     -1.503606   -2.892341   -0.364522
C     -1.185059   -2.430342    1.069284
C     -1.273198   -0.908778    1.270025
C     -0.719428   -0.050078    0.080754
C     -1.475542   -0.470504   -1.240104
C     -2.220221   -1.823184   -1.191277
C     -1.023250    1.456099    0.277203
C     -1.693663    1.988598    1.406363
C     -1.913152    3.364620    1.523388
C     -1.465826    4.236223    0.531239
C     -0.791498    3.736034   -0.581254
C     -0.568126    2.363004   -0.706675
N      0.779446   -0.150871   -0.049072
C      1.384268   -1.335984   -0.702420
C      2.823212   -1.013647   -1.121997
C      3.656544   -0.581889    0.088405
C      2.969460    0.561157    0.840502
C      1.526710    0.183327    1.188004
H     -0.581206   -3.215305   -0.884871
H     -2.151984   -3.794404   -0.317317
H     -0.187215   -2.800549    1.379305
H     -1.908479   -2.907778    1.766662
H     -2.355689   -0.681116    1.391698
H     -0.785775   -0.643127    2.231257
H     -2.267665    0.274105   -1.483702
H     -0.811737   -0.421163   -2.126028
H     -3.231899   -1.665848   -0.755180
H     -2.366706   -2.198175   -2.227287
H     -2.044157    1.366644    2.215347
H     -2.427914    3.756835    2.391152
H     -1.636838    5.300613    0.627728
H     -0.437840    4.413307   -1.347901
H     -0.034239    2.002088   -1.577185
H      0.852925   -1.630050   -1.623483
H      1.409262   -2.205049   -0.015579
H      3.285949   -1.911052   -1.586684
H      2.813763   -0.197617   -1.877865
H      4.660939   -0.250370   -0.252249
H      3.793970   -1.447799    0.773039
H      3.532032    0.781297    1.773255
H      2.969318    1.477082    0.209430
H      1.072609    1.046849    1.717651
H      1.531508   -0.680863    1.889548
