47

C      9.498827    1.372528   -0.158609
O      8.197114    0.865787    0.109453
C      7.958112   -0.140439    1.051972
O      8.911525   -0.634369    1.712755
C      6.592323   -0.633752    1.286997
C      5.539823   -0.155348    0.613318
C      4.166881   -0.644477    0.844732
O      3.942749   -1.530846    1.714983
N      3.083830   -0.107076    0.073815
C      1.706933   -0.562162    0.273370
C      0.736137    0.160967   -0.676198
C     -0.694017   -0.217267   -0.370241
O     -1.016793   -1.435444   -0.326761
N     -1.681536    0.807813   -0.161733
C     -3.089082    0.558246    0.172231
C     -3.802320   -0.216329   -0.956513
C     -5.300312   -0.195175   -0.781186
C     -5.958911   -1.260980   -0.144305
C     -7.344090   -1.221742    0.043326
C     -8.080180   -0.118867   -0.398715
C     -7.431915    0.948142   -1.026493
C     -6.046681    0.913624   -1.214580
C     -3.202099   -0.115659    1.514840
O     -3.040174   -1.361038    1.628645
O     -3.449386    0.653006    2.648026
N      1.062490   -0.146748   -2.070493
H      9.428998    2.167992   -0.928291
H     10.152008    0.559205   -0.539407
H      9.937241    1.804593    0.765845
H      6.454073   -1.409173    2.031412
H      5.683307    0.618323   -0.131591
H      3.291729    0.630261   -0.638132
H      1.409964   -0.357507    1.325808
H      1.656093   -1.660526    0.102569
H      0.863153    1.254459   -0.517306
H     -1.380400    1.805513   -0.240696
H     -3.590155    1.549003    0.259973
H     -3.547901    0.250128   -1.933486
H     -3.444252   -1.266808   -1.006459
H     -5.400877   -2.118326    0.210034
H     -7.846632   -2.045329    0.533841
H     -9.152140   -0.089754   -0.251961
H     -8.002295    1.803298   -1.364803
H     -5.554922    1.750692   -1.694213
H     -3.520737    0.223082    3.562463
H      0.429157    0.408441   -2.690628
H      0.875340   -1.159444   -2.257608
