50

C     -0.954290    4.030898   -0.001371
C     -0.304633    2.679574    0.151820
C      0.939162    2.625662    0.683396
C      1.756363    1.373862    0.901166
C      2.680839    1.108108   -0.294538
C      3.648998   -0.028480   -0.008048
C      3.345372   -1.331576   -0.208712
C      2.014899   -1.861180   -0.688183
C      1.311284   -2.671414    0.415983
C     -0.170268   -2.741245    0.126047
C     -0.957685   -1.734845    0.568990
C     -2.375484   -1.479864    0.115134
C     -3.028571   -0.126207    0.572106
C     -2.068345    1.052933    0.903262
C     -1.106367    1.453196   -0.235075
C     -3.885458    0.223692   -0.608808
C     -4.844461    1.149414   -0.644414
C     -3.450869   -0.591161   -1.714979
O     -3.880278   -0.516647   -2.896819
O     -2.482715   -1.480387   -1.307332
C     -0.673500   -3.895662   -0.709295
C      4.967523    0.314417    0.566150
O      5.152382    1.434330    1.102763
O      6.015367   -0.600031    0.521930
H     -0.306090    4.694490   -0.613187
H     -1.939865    3.947679   -0.504880
H     -1.103785    4.490800    0.997782
H      1.422487    3.562920    0.944364
H      1.117846    0.495721    1.111552
H      2.380196    1.532351    1.809459
H      3.263318    2.032650   -0.508929
H      2.092166    0.927896   -1.219266
H      4.077274   -2.087547    0.048395
H      2.192613   -2.529708   -1.559589
H      1.347544   -1.056721   -1.048497
H      1.743710   -3.694937    0.460202
H      1.489505   -2.202220    1.408724
H     -0.521327   -1.033883    1.268881
H     -3.003527   -2.309139    0.498151
H     -3.673208   -0.314521    1.457720
H     -2.693756    1.934888    1.154888
H     -1.499454    0.831926    1.829185
H     -0.441411    0.619930   -0.525233
H     -1.691978    1.690965   -1.148096
H     -5.388165    1.347528   -1.557607
H     -5.071339    1.731145    0.245272
H     -0.016121   -4.020188   -1.596736
H     -0.637680   -4.833234   -0.118911
H     -1.708332   -3.765398   -1.063853
H      6.920113   -0.380782    0.919034
