33

C      0.588680    4.160302    0.206060
O     -0.176318    3.132014    0.826857
C     -0.256512    1.807533    0.365865
C      0.433328    1.379769   -0.781518
C      0.330876    0.056693   -1.221610
C     -0.452311   -0.850934   -0.499692
C     -1.150839   -0.447178    0.654770
C     -1.051889    0.901186    1.087425
O     -1.712258    1.407534    2.223771
C     -2.568203    0.684352    3.101315
O     -1.934991   -1.361009    1.376681
C     -2.100802   -2.736442    1.046281
C      1.103771   -0.400035   -2.434405
C      2.556682   -0.744362   -2.085322
C      2.639938   -1.948942   -1.198599
O      2.819130   -1.810356    0.041029
O      2.480422   -3.220262   -1.740572
H      1.664532    3.885098    0.199766
H      0.230098    4.329943   -0.831170
H      0.466450    5.100434    0.781837
H      1.054655    2.068865   -1.337904
H     -0.506841   -1.875059   -0.843324
H     -2.009558   -0.141300    3.590039
H     -2.932014    1.370977    3.892786
H     -3.449153    0.297255    2.547442
H     -2.564660   -2.835230    0.042198
H     -1.119715   -3.256245    1.070059
H     -2.770259   -3.209355    1.793562
H      0.610301   -1.279267   -2.904776
H      1.101611    0.409514   -3.196604
H      3.047835    0.125523   -1.596265
H      3.111463   -0.957162   -3.024051
H      2.516551   -4.043853   -1.151933
