21

C      2.680474   -1.301790   -0.146196
C      3.173779    0.021683   -0.200541
C      2.289661    1.116814   -0.181400
C      0.923136    0.851374   -0.107613
C      0.445912   -0.443758   -0.054700
C      1.297063   -1.546715   -0.072052
C     -0.924747   -0.341409    0.010992
C     -1.206390    1.005779   -0.005453
N     -0.083361    1.753067   -0.078052
C     -2.523265    1.450942    0.049821
N     -3.517985    0.516631    0.120254
C     -3.255601   -0.829136    0.137604
C     -1.931089   -1.299563    0.082521
H      3.372354   -2.133789   -0.161723
H      4.240527    0.194867   -0.257369
H      2.660725    2.132687   -0.222748
H      0.911011   -2.556898   -0.030103
H     -0.009595    2.794651   -0.105221
H     -2.759693    2.506541    0.037690
H     -4.074613   -1.533455    0.194148
H     -1.708302   -2.358521    0.095345
