50

C     -3.839646   -0.410911    1.877790
C     -3.563762    0.312349    0.560160
C     -2.581862   -0.428776   -0.375499
C     -3.106195   -1.815333   -0.829587
C     -2.588903   -2.993366    0.002660
O     -1.309928   -0.555878    0.247899
C     -0.421463    0.485381   -0.124359
C      0.336078    0.076824   -1.366782
C      1.629711    0.385506   -1.582769
C      2.482761    1.004148   -0.496224
C      1.665071    1.697268    0.608618
C      0.521105    0.767497    1.059031
N     -0.243405    1.389460    2.146050
C     -0.572757    0.707291    3.363803
O     -0.167205   -0.468005    3.572286
C     -1.419119    1.388038    4.388976
N      2.541421    2.017810    1.739138
C      2.287352    0.003036   -2.854790
O      1.615769   -0.503513   -3.796482
O      3.663372    0.214849   -3.009055
C      4.393545   -0.168363   -4.172650
C      4.628658   -1.674210   -4.188464
H     -4.396918    0.265675    2.559217
H     -4.466732   -1.309223    1.702750
H     -2.892383   -0.705460    2.374044
H     -3.144489    1.314832    0.794286
H     -4.527999    0.477939    0.031970
H     -2.532398    0.179680   -1.311613
H     -4.217887   -1.828168   -0.832718
H     -2.784104   -1.988845   -1.880280
H     -3.070042   -3.930922   -0.347203
H     -2.818052   -2.863859    1.078186
H     -1.490509   -3.101238   -0.123270
H     -0.955301    1.439616   -0.351334
H     -0.238575   -0.398112   -2.152962
H      3.170290    1.752580   -0.947231
H      3.103805    0.198565   -0.046475
H      1.235641    2.641195    0.198418
H      0.968310   -0.193618    1.401005
H     -0.635712    2.346727    1.993239
H     -1.522936    0.754442    5.295458
H     -2.426857    1.582706    3.966732
H     -0.951281    2.353115    4.675679
H      2.013315    2.620088    2.411361
H      3.327200    2.613826    1.389904
H      5.377642    0.345550   -4.156982
H      3.853778    0.148706   -5.091417
H      5.246745   -1.946144   -5.069823
H      3.662497   -2.216945   -4.249671
H      5.162354   -1.983812   -3.265103
