16

C      1.778388    0.029761    1.040594
C      0.386343   -0.238728    0.538406
C     -0.135840    0.407946   -0.602050
N     -1.405453    0.124404   -1.010815
C     -2.178264   -0.770873   -0.339021
O     -3.348261   -1.018273   -0.733410
N     -1.691429   -1.400912    0.758807
C     -0.435278   -1.155063    1.207421
N      0.641608    1.358985   -1.342063
H      2.008929   -0.571223    1.945976
H      1.882088    1.103177    1.304604
H      2.518248   -0.233089    0.255615
H     -1.795407    0.601711   -1.855327
H     -0.079772   -1.676283    2.086983
H      0.236958    1.826709   -2.183291
H      1.617143    1.611750   -1.072429
