43

C      5.578804    1.327024    5.179911
C      6.082319    0.881471    3.840702
C      5.337485    0.883129    2.728304
C      3.928513    1.325040    2.688509
C      3.237956    1.302627    1.546460
C      1.833267    1.741352    1.500915
C      1.141851    1.717641    0.360054
C     -0.293322    2.165646    0.323446
C     -0.907838    2.026672   -1.074121
C     -1.073342    0.582405   -1.457121
C     -0.317557    0.013420   -2.401719
C     -0.423352   -1.416333   -2.751422
O      0.584486   -1.990210   -3.242447
N     -1.622540   -2.176561   -2.538961
C     -2.947074   -1.677565   -2.917618
C     -3.987570   -1.970464   -1.816818
C     -4.309849   -3.469201   -1.725380
C     -5.272599   -1.174341   -2.076796
H      4.722600    0.694375    5.495702
H      5.265042    2.391261    5.135099
H      6.387616    1.228701    5.933893
H      7.107982    0.539236    3.773113
H      5.800415    0.539943    1.810055
H      3.444249    1.672328    3.593321
H      3.714018    0.956321    0.635253
H      1.353234    2.087989    2.409798
H      1.619656    1.372164   -0.550205
H     -0.889036    1.574618    1.053881
H     -0.341056    3.234023    0.626905
H     -0.290766    2.579627   -1.817089
H     -1.914052    2.497419   -1.068422
H     -1.789707   -0.008288   -0.901780
H      0.457238    0.595806   -2.886413
H     -1.511067   -3.209925   -2.436331
H     -2.904554   -0.583662   -3.106798
H     -3.254928   -2.154232   -3.873680
H     -3.578018   -1.642103   -0.836505
H     -5.092754   -3.646576   -0.957297
H     -4.675946   -3.853090   -2.701803
H     -3.412009   -4.046220   -1.423062
H     -6.014473   -1.366750   -1.272460
H     -5.719032   -1.459733   -3.053763
H     -5.054289   -0.084979   -2.085669
