18

C     -0.876060    1.264652    0.346637
C      0.443630    1.640592    0.599743
C      1.496603    0.742926    0.394599
C      1.216902   -0.563451   -0.075902
C     -0.115808   -0.930951   -0.327431
C     -1.169985   -0.024806   -0.119580
C     -2.570963   -0.420169   -0.387038
O     -2.839209   -1.578693   -0.806300
O     -3.608054    0.485383   -0.177753
N      2.251178   -1.530969   -0.306299
O      2.791099    1.190109    0.669329
H     -1.665473    1.985966    0.516833
H      0.651227    2.640694    0.959349
H     -0.326949   -1.930746   -0.687266
H     -4.570415    0.225059   -0.357650
H      3.261002   -1.338113   -0.143798
H      2.009215   -2.485726   -0.654217
H      3.622058    0.628244    0.556744
