43

C      5.601409    0.646909    2.830376
C      6.038894   -0.485649    2.144234
C      5.232516   -1.064400    1.162046
C      3.974108   -0.512519    0.855473
C      3.532783    0.632421    1.549531
C      4.355787    1.205355    2.537066
C      2.212368    1.220211    1.235052
O      1.819236    2.245725    1.856950
C      1.350166    0.608902    0.194074
C      1.781747   -0.539186   -0.504795
C      3.115579   -1.124744   -0.186189
O      3.526695   -2.147337   -0.799727
C      0.938519   -1.109571   -1.487898
C     -0.318862   -0.541669   -1.764210
C     -0.744896    0.605430   -1.060724
C      0.096169    1.168847   -0.092814
C     -2.105922    1.220883   -1.297294
N     -3.191711    0.308487   -0.867504
C     -4.493240    0.800750   -1.366207
C     -5.498636   -0.309058   -1.375883
O     -6.587985   -0.182202   -0.755534
O     -5.230995   -1.478364   -2.080736
C     -3.216850    0.143380    0.608053
C     -2.382167   -1.031527    1.010417
O     -2.618814   -2.169292    0.523205
O     -1.351908   -0.870202    1.931467
O     -1.124812   -1.141158   -2.737162
O      1.351245   -2.245839   -2.188850
H      6.228583    1.093363    3.591254
H      7.004995   -0.916482    2.373678
H      5.594318   -1.943354    0.643453
H      4.037412    2.084670    3.082871
H     -0.238541    2.043331    0.452115
H     -2.181081    1.436881   -2.385760
H     -2.202048    2.206970   -0.787738
H     -4.409158    1.156221   -2.416642
H     -4.855569    1.656798   -0.751691
H     -5.900013   -2.238729   -2.098645
H     -4.245434   -0.054001    0.983088
H     -2.862559    1.059924    1.131196
H     -0.771986   -1.654313    2.205065
H     -2.040211   -0.797359   -2.995477
H      0.780868   -2.688359   -2.899182
