29

C      0.609589    0.882242    0.807801
C      2.005213    1.359109    0.524599
C      2.313762    0.744588   -0.850110
O      1.124432    0.238103   -1.420093
C      0.058553    0.610793   -0.578191
N     -0.948911   -0.449737   -0.536191
C     -0.753435   -1.794596   -0.576129
N     -1.899294   -2.512667   -0.410391
C     -2.828353   -1.552157   -0.251920
C     -4.188903   -1.678084   -0.017502
N     -4.912421   -0.529908    0.140937
C     -4.317314    0.705224    0.074306
N     -2.973634    0.816462   -0.154783
C     -2.263230   -0.325940   -0.317771
C      3.352176   -0.380176   -0.759065
O      2.869986   -1.427090    0.038236
O      2.018384    2.761595    0.450525
H      0.651691   -0.058001    1.402334
H      0.000358    1.636604    1.352804
H      2.698715    1.013407    1.327670
H      2.722656    1.524015   -1.531220
H     -0.399013    1.541211   -0.984861
H      0.216553   -2.255230   -0.710598
H     -4.665410   -2.647289    0.044399
H     -4.914802    1.596715    0.206072
H      3.565790   -0.759555   -1.783420
H      4.297809    0.020214   -0.329080
H      3.585981   -2.113931    0.052846
H      2.973073    3.034078    0.454463
