27

C     -4.620424   -0.430674    0.549405
C     -3.504397   -1.230171    0.806771
C     -2.275229   -0.933929    0.209021
C     -2.150092    0.179635   -0.644891
C     -3.285673    0.961258   -0.915412
C     -4.512187    0.661380   -0.314548
C     -0.874911    0.518256   -1.316165
C      0.330114    0.338418   -0.763496
C      1.615810    0.662595   -1.382388
O      1.813452    1.139532   -2.531249
C      2.619824    0.320626   -0.394600
C      4.009553    0.412429   -0.429981
C      4.725141   -0.005169    0.705981
C      4.042803   -0.499381    1.838839
C      2.638473   -0.580450    1.846160
C      1.949113   -0.161431    0.710186
O      0.568999   -0.161044    0.520015
H     -5.571041   -0.662996    1.011821
H     -3.593929   -2.086844    1.462285
H     -1.438680   -1.594083    0.392911
H     -3.219707    1.811130   -1.584029
H     -5.379569    1.275112   -0.520736
H     -0.927131    0.996073   -2.287589
H      4.522843    0.792808   -1.303498
H      5.805791    0.052743    0.711691
H      4.603761   -0.818030    2.707740
H      2.107293   -0.957792    2.710021
