50

C     -3.014625   -1.281639   -1.463603
C     -2.889991    0.063029   -0.693847
C     -2.212197    1.141241   -1.557406
C     -0.728207    0.776694   -1.817317
C      0.091579    0.408077   -0.524034
C     -0.689030   -0.558462    0.432722
C     -2.117559   -0.012310    0.626242
C     -3.074755   -0.678523    1.616623
C     -4.442716   -0.083949    1.238008
C     -4.248426    0.392426   -0.169691
O     -5.124797    0.931153   -0.828172
C      0.052116   -0.698245    1.777826
C      1.519387   -0.977373    1.591898
C      2.212379   -0.612998    0.492438
C      1.544172   -0.143341   -0.811740
C      2.453116    0.963742   -1.458235
C      3.195940    1.805659   -0.406993
C      4.173917    0.947270    0.434009
C      3.720475   -0.525829    0.568064
O      5.451986    0.997226   -0.145733
C      1.512118   -1.359880   -1.774434
O     -0.084641    0.476206    2.538132
H     -3.479154   -2.069453   -0.833604
H     -2.041744   -1.672418   -1.817239
H     -3.658821   -1.143048   -2.358485
H     -2.744413    1.241940   -2.528523
H     -2.262368    2.130607   -1.050265
H     -0.704121   -0.048265   -2.552615
H     -0.272727    1.653239   -2.318802
H      0.215086    1.367534    0.027637
H     -0.754058   -1.574230   -0.002216
H     -1.999719    1.030773    1.015055
H     -2.810324   -0.435092    2.668473
H     -3.072827   -1.781848    1.481609
H     -4.689727    0.778426    1.893903
H     -5.242474   -0.853076    1.290269
H     -0.395887   -1.557066    2.330368
H      2.061452   -1.286859    2.481470
H      3.227075    0.501063   -2.111518
H      1.881445    1.642470   -2.117725
H      2.449549    2.281606    0.265860
H      3.748199    2.628435   -0.911612
H      4.217252    1.400083    1.452542
H      4.150516   -1.128208   -0.260689
H      4.121224   -0.952196    1.514071
H      6.091151    0.673815    0.542054
H      1.237015   -1.054668   -2.804730
H      2.516298   -1.829008   -1.849143
H      0.812680   -2.147465   -1.433066
H      0.099180    0.232735    3.483243
