48

C     -2.715589   -1.825207    0.395090
C     -2.561956   -0.726520   -0.693811
C     -1.639942   -1.199145   -1.832785
C     -0.180841   -1.345641   -1.328782
C      0.361351   -0.085700   -0.566581
C     -0.652000    0.462424    0.497310
C     -2.021412    0.617273   -0.189656
C     -3.194264    1.272327    0.543256
C     -4.408501    0.890436   -0.321834
C     -3.939789   -0.309335   -1.087804
O     -4.633390   -0.910081   -1.893964
C     -0.153728    1.812091    1.038899
C      1.213328    1.675841    1.712150
C      2.214071    1.001626    0.790994
C      3.489971    1.432039    0.821920
C      4.557281    0.775849    0.055393
O      5.730459    1.231224    0.106774
C      4.277599   -0.461551   -0.733619
C      2.808453   -0.505203   -1.162800
C      1.814034   -0.270220    0.020984
C      1.890311   -1.474961    0.995400
O      1.083536    0.942302    2.902059
H     -1.748712   -2.149941    0.824086
H     -3.352920   -1.479054    1.236027
H     -3.198407   -2.724388   -0.044744
H     -1.993728   -2.174959   -2.231361
H     -1.664016   -0.470392   -2.673488
H      0.448897   -1.539692   -2.221293
H     -0.112518   -2.248374   -0.691730
H      0.440481    0.708145   -1.345910
H     -0.751538   -0.230023    1.355646
H     -1.847342    1.281819   -1.074004
H     -3.295104    0.859401    1.570324
H     -3.076888    2.376394    0.598505
H     -4.659099    1.710622   -1.028535
H     -5.287540    0.640014    0.309425
H     -0.875520    2.211234    1.784353
H     -0.081795    2.551970    0.210410
H      1.545749    2.712164    1.959302
H      3.759900    2.290082    1.426813
H      4.527486   -1.352187   -0.119452
H      4.921406   -0.480298   -1.639681
H      2.655948    0.274611   -1.942211
H      2.627853   -1.490768   -1.641653
H      1.069991   -1.460757    1.738726
H      2.844546   -1.461970    1.563855
H      1.845515   -2.440572    0.450191
H      1.918374    1.087054    3.419864
