13

C     -1.356601   -0.355581    0.008992
C      0.083918   -0.046758   -0.410315
C      0.570239    1.262493    0.218685
C      0.999117   -1.184145   -0.043418
O      1.150494   -1.515507    1.122536
H     -1.698924   -1.298825   -0.468280
H     -1.432379   -0.463001    1.112673
H     -2.032648    0.463341   -0.317433
H      0.104400    0.072135   -1.515950
H     -0.077995    2.104771   -0.104716
H      1.609786    1.479681   -0.108203
H      0.547895    1.199946    1.328180
H      1.532698   -1.718550   -0.822751
