41

C     -4.986745    0.584087   -1.023546
N     -3.523919    0.500557   -0.862601
C     -3.059984   -0.873603   -0.634568
C     -3.315702   -1.171575    0.851993
C     -3.313685    0.198018    1.512304
C     -3.051469    1.173795    0.353580
C     -1.527344    1.432152    0.191225
C     -0.854942    0.478832   -0.837004
C     -1.538546   -0.917247   -0.947789
O      0.526531    0.333629   -0.506818
C      1.485806   -0.178356   -1.386245
O      1.166991   -0.491038   -2.565917
C      2.879047   -0.349731   -0.941351
C      3.931111   -0.826929   -1.719642
N      5.075716   -0.859724   -1.002015
C      4.759962   -0.408882    0.223643
C      5.619513   -0.265038    1.311916
C      5.082624    0.225803    2.514719
C      3.713760    0.557957    2.603020
C      2.867982    0.403184    1.489775
C      3.426909   -0.085906    0.304829
H     -5.294332    0.033884   -1.938006
H     -5.288688    1.644687   -1.155998
H     -5.533138    0.162995   -0.152684
H     -3.594849   -1.607508   -1.279666
H     -2.555433   -1.843126    1.306105
H     -4.312152   -1.650153    0.973849
H     -4.310427    0.405016    1.960020
H     -2.555572    0.258216    2.322766
H     -3.577377    2.140252    0.527171
H     -1.381513    2.476759   -0.161407
H     -1.002784    1.368234    1.169381
H     -0.936232    0.974195   -1.831877
H     -1.014215   -1.650589   -0.297483
H     -1.406971   -1.284457   -1.988879
H      3.862621   -1.133722   -2.755424
H      6.013815   -1.173760   -1.336508
H      6.667811   -0.523197    1.234967
H      5.722996    0.349166    3.378371
H      3.311493    0.934307    3.534590
H      1.821330    0.658818    1.567297
