45

C     -6.475606   -0.827021    1.187890
C     -6.223763   -1.139222   -0.286993
C     -4.742002   -1.405636   -0.593532
C     -3.883558   -0.134862   -0.506649
C     -2.438893   -0.417318   -0.937286
C     -1.576076    0.849513   -0.831296
C     -0.152718    0.646174   -1.375398
C      0.729288   -0.182558   -0.425957
C      2.138366   -0.438106   -0.991046
C      2.992931    0.825731   -1.218025
C      3.176166    1.726559    0.018992
C      3.792175    1.036285    1.251881
C      5.256051    0.603294    1.048277
C      5.896954    0.323340    2.380776
O      6.757161    1.118560    2.842642
O      5.532098   -0.795173    3.125798
O      5.309237   -0.554750    0.257669
H     -6.058228   -1.629673    1.832280
H     -6.021691    0.146166    1.467195
H     -7.569151   -0.762097    1.369175
H     -6.805902   -2.047705   -0.554271
H     -6.600533   -0.302687   -0.914754
H     -4.346942   -2.178468    0.102013
H     -4.674148   -1.814956   -1.625395
H     -4.316785    0.649079   -1.166211
H     -3.879075    0.242631    0.538311
H     -2.021179   -1.213347   -0.285341
H     -2.434365   -0.780537   -1.988578
H     -2.056767    1.657984   -1.425101
H     -1.530825    1.191483    0.226168
H     -0.195120    0.164217   -2.376658
H      0.299505    1.652225   -1.503049
H      0.259578   -1.174431   -0.261411
H      0.795231    0.313149    0.565298
H      2.676315   -1.128766   -0.308198
H      2.042190   -0.973313   -1.960819
H      2.539210    1.431674   -2.030409
H      3.988875    0.518944   -1.599891
H      3.816753    2.588900   -0.267362
H      2.193254    2.157506    0.304685
H      3.172388    0.170526    1.567576
H      3.752299    1.773317    2.084877
H      5.809941    1.431372    0.545859
H      4.834615   -1.447323    2.787675
H      6.242749   -0.635048   -0.071408
