48

C      7.087694    1.208815    0.816421
C      6.065646    0.735786   -0.213271
O      4.762224    0.734542    0.338096
C      4.459896   -0.519795    0.913292
C      3.022555   -0.511979    1.463364
C      1.901933   -0.538442    0.390488
C      2.015433   -1.818621   -0.418549
O      1.680693   -2.914598    0.106436
N      2.548525   -1.815690   -1.745876
C      2.824974   -0.591903   -2.424816
O      3.318942   -0.612444   -3.583193
N      2.522728    0.654912   -1.801422
C      1.996974    0.707352   -0.471985
O      1.653326    1.820848    0.009408
O      0.650143   -0.532380    1.095871
C     -0.645475   -0.534010    0.542432
C     -0.893826   -0.575582   -0.844503
C     -2.205798   -0.569237   -1.326828
C     -3.287539   -0.507130   -0.442762
C     -3.043026   -0.489340    0.941066
C     -1.732109   -0.498141    1.424197
O     -4.588610   -0.511950   -0.967340
C     -5.703567    0.105802   -0.381798
C     -5.587866    1.280878    0.385634
C     -6.726571    1.874498    0.939196
C     -7.986787    1.307558    0.724313
C     -8.109477    0.151903   -0.052646
C     -6.972350   -0.441287   -0.610315
F     -9.090837    1.883250    1.261117
H      8.075992    1.342366    0.326335
H      7.195334    0.460329    1.628698
H      6.768208    2.179424    1.253995
H      6.371971   -0.248568   -0.638311
H      6.073690    1.455594   -1.059152
H      5.144841   -0.719607    1.765310
H      4.570830   -1.344018    0.176026
H      2.900845   -1.398310    2.125471
H      2.893945    0.382345    2.112735
H      2.711695   -2.723391   -2.236586
H      2.668938    1.543276   -2.331869
H     -0.089610   -0.613270   -1.562549
H     -2.383382   -0.604036   -2.394562
H     -3.863626   -0.483345    1.647077
H     -1.558510   -0.481759    2.492699
H     -4.624324    1.748582    0.538740
H     -6.632608    2.777545    1.529289
H     -9.085402   -0.284640   -0.224338
H     -7.076674   -1.333557   -1.215039
