10

C     -1.847576    0.003270    0.005711
C     -0.592581    0.442599   -0.071272
C      0.562520   -0.469988   -0.152073
O      0.396290   -1.719882   -0.150877
N      1.884491    0.061767   -0.232643
H     -2.664051    0.711368    0.063299
H     -2.077997   -1.054611    0.012469
H     -0.414979    1.510938   -0.074570
H      2.046749    1.093325   -0.235232
H      2.707134   -0.578787   -0.290119
