26

C     -0.142992    2.201420    1.041413
N     -0.641336    0.884381    0.608691
C      0.041626   -0.247709    1.269710
C      1.495449   -0.432291    0.765470
C      1.576833   -0.543456   -0.759560
C      0.774977    0.566536   -1.444863
C     -0.652452    0.714534   -0.859655
C     -1.556057   -0.482111   -1.223694
C     -1.355426   -1.672080   -0.313793
O     -1.721265   -2.774034   -0.692511
C     -0.803361   -1.525614    1.085483
H      0.919391    2.358271    0.765999
H     -0.753366    3.007231    0.581272
H     -0.244337    2.301531    2.142924
H      0.095075   -0.057933    2.365707
H      2.117449    0.424448    1.100912
H      1.942548   -1.341736    1.222241
H      2.640271   -0.474240   -1.074918
H      1.206278   -1.537432   -1.087943
H      1.321844    1.527438   -1.339930
H      0.717903    0.356054   -2.534847
H     -1.110232    1.613060   -1.332063
H     -2.619182   -0.169181   -1.140403
H     -1.383598   -0.782816   -2.280231
H     -1.665179   -1.491774    1.786357
H     -0.200863   -2.422495    1.348228
