23

C     -2.585995    1.369798   -0.079356
C     -4.069779    1.233570    0.087911
O     -4.895217    2.162157   -0.114372
N     -4.457120   -0.070122    0.504500
C     -3.234016   -0.772236    0.606112
O     -3.151428   -1.979509    0.954038
N     -2.112524    0.031786    0.273515
N     -0.780578   -0.419573    0.292086
C      0.228433    0.335608   -0.016504
C      1.594504   -0.196100    0.022791
C      1.963796   -1.485093    0.370228
C      3.338574   -1.525086    0.264180
C      3.711090   -0.257378   -0.140569
O      2.657895    0.513672   -0.277077
N      5.049716    0.180391   -0.384029
O      6.010561   -0.602303   -0.236188
O      5.284829    1.474397   -0.784757
H     -2.180229    2.125707    0.625790
H     -2.331061    1.608343   -1.133578
H     -5.420615   -0.425949    0.691741
H      0.082730    1.367787   -0.307580
H      1.312992   -2.297886    0.665041
H      3.983441   -2.371982    0.457986
