28

C      1.997910   -0.072860    0.932633
C      2.116469   -0.198289   -0.589915
N      0.831757   -0.492130   -1.245143
C      0.086659   -1.636671   -0.682715
N     -0.874349   -1.257515    0.372233
C     -2.112274   -0.626352   -0.112871
C     -2.002105    0.897498   -0.229845
N     -0.629624    1.356629   -0.497509
C      0.044196    0.695046   -1.633177
C      0.185569    1.618730    0.705392
N      0.672219    0.393015    1.370420
C     -0.316423   -0.677104    1.610502
H      2.242336   -1.050470    1.403997
H      2.768951    0.639713    1.297739
H      2.560504    0.733952   -1.003930
H      2.837582   -1.009198   -0.830732
H      0.791065   -2.395806   -0.276210
H     -0.444882   -2.154909   -1.509694
H     -2.941296   -0.876371    0.584107
H     -2.406427   -1.052162   -1.097658
H     -2.665224    1.245853   -1.051116
H     -2.396432    1.368679    0.697591
H      0.701273    1.436470   -2.136708
H     -0.699061    0.400535   -2.406836
H      1.040164    2.275125    0.428749
H     -0.402805    2.210774    1.439083
H     -1.132166   -0.279850    2.254298
H      0.146415   -1.492331    2.207317
