45

C     -1.813771    1.111876   -2.014470
C     -2.111074    0.739529   -0.524645
C     -1.563014    1.838246    0.410626
C     -0.013248    1.865985    0.408362
C      0.630982    0.469965    0.677498
C      0.021169   -0.628896   -0.245296
C     -1.513131   -0.604020   -0.079541
C     -2.370872   -1.656265   -0.782704
C     -3.774402   -1.012539   -0.842138
C     -3.613853    0.444901   -0.357133
O     -4.418873    1.328726   -1.094766
O     -2.401271   -2.847300   -0.040255
C      0.630378   -1.984531    0.133509
C      2.127412   -1.992267   -0.185760
C      2.848747   -0.738579    0.257792
C      2.158690    0.459755    0.591201
C      2.918847    1.579400    0.995049
C      4.313917    1.538065    0.994448
C      4.983889    0.372681    0.618318
C      4.253091   -0.757295    0.252637
O      6.376192    0.324840    0.608793
H     -0.737327    1.254124   -2.222840
H     -2.308119    2.072197   -2.273556
H     -2.190909    0.340642   -2.717012
H     -1.911701    1.660502    1.452285
H     -1.951781    2.832486    0.100257
H      0.364958    2.280015   -0.549684
H      0.280263    2.574845    1.209570
H      0.383714    0.210131    1.731980
H      0.290650   -0.433637   -1.304373
H     -1.712804   -0.730716    1.014354
H     -1.976744   -1.846134   -1.808239
H     -4.499269   -1.548920   -0.190967
H     -4.152802   -1.041805   -1.887596
H     -3.888571    0.501407    0.723596
H     -5.356398    1.147941   -0.823281
H     -2.820527   -3.530974   -0.625133
H      0.472792   -2.192351    1.215178
H      0.152815   -2.800943   -0.448294
H      2.587101   -2.881615    0.298140
H      2.260560   -2.098857   -1.284593
H      2.450837    2.494546    1.322343
H      4.874433    2.414013    1.295883
H      4.783290   -1.657413   -0.035393
H      6.935736    1.128239    0.870316
