40

C     -1.448035    2.255532   -0.947106
C     -2.833372    2.225258   -1.022080
C     -3.544325    1.091756   -0.635946
C     -2.845890   -0.041430   -0.161931
C     -3.560402   -1.195179    0.231702
C     -2.865238   -2.308214    0.697836
C     -1.480044   -2.298156    0.780501
C     -0.720255   -1.165340    0.397662
C     -1.417814   -0.020640   -0.080675
C     -0.704018    1.144609   -0.478700
C      0.720257    1.165344   -0.397660
C      1.417817    0.020640    0.080670
C      0.704020   -1.144607    0.478699
C      1.448036   -2.255531    0.947105
C      2.833373   -2.225259    1.022090
C      3.544327   -1.091762    0.635941
C      2.845891    0.041426    0.161927
C      3.560400    1.195183   -0.231687
C      2.865239    2.308210   -0.697851
C      1.480046    2.298160   -0.780501
C      5.040338    1.227455   -0.151563
O      5.685697    2.252773   -0.500717
N      5.745381    0.083633    0.326902
C      5.024115   -1.080952    0.724220
O      5.655193   -2.087692    1.145994
C     -5.040342   -1.227460    0.151557
O     -5.685702   -2.252776    0.500716
N     -5.745384   -0.083635   -0.326904
C     -5.024115    1.080953   -0.724205
O     -5.655190    2.087686   -1.145995
H     -0.997849    3.176988   -1.268989
H     -3.352215    3.103185   -1.387933
H     -3.396529   -3.201427    1.003947
H     -1.042725   -3.206694    1.152883
H      0.997849   -3.176983    1.268993
H      3.352213   -3.103192    1.387936
H      3.396525    3.201430   -1.003949
H      1.042730    3.206699   -1.152888
H      6.788564    0.098824    0.386256
H     -6.788568   -0.098817   -0.386260
