18

C     -2.048510   -1.383650   -0.505731
C     -2.637146   -0.139662   -0.276239
C     -1.848935    0.945119    0.112751
C     -0.462743    0.794598    0.271325
C      0.141768   -0.456010    0.014865
C     -0.668549   -1.543949   -0.357395
C      1.602503   -0.656823    0.152975
O      2.038977   -1.753881    0.595555
N      2.530845    0.358667   -0.242886
O      3.856813    0.201271   -0.016047
O      0.301639    1.876148    0.708726
H     -2.661777   -2.225005   -0.801728
H     -3.706293   -0.017501   -0.392649
H     -2.318236    1.901979    0.303155
H     -0.230330   -2.515780   -0.549610
H      2.207547    1.194075   -0.779394
H      4.018539    0.642242    0.856840
H     -0.116111    2.778162    0.905488
