23

C     -3.319985   -0.017392   -0.004534
C     -2.932386   -1.353361    0.034770
C     -1.579877   -1.689539    0.041307
C     -0.590391   -0.686496    0.006485
C     -0.981678    0.682171   -0.025797
C     -2.359387    0.994683   -0.034419
C      0.019381    1.684648   -0.044586
C      1.365836    1.317890   -0.060721
C      1.762118   -0.025182   -0.055194
C      0.776971   -1.037074    0.017934
O      1.124993   -2.387841    0.136543
C      3.207594   -0.324231   -0.160219
O      3.613176   -1.316567   -0.822699
O      4.136768    0.532877    0.423562
O     -0.264848    3.054169   -0.053335
H     -4.372265    0.236894   -0.011630
H     -3.683300   -2.132658    0.058992
H     -1.314285   -2.738971    0.069672
H     -2.722796    2.008774   -0.067170
H      2.113689    2.101293   -0.104466
H      2.061961   -2.710579    0.335064
H      5.130859    0.355587    0.342354
H     -1.192149    3.450904   -0.021912
