17

C     -1.962293    0.552130   -0.283272
C     -0.818829   -0.054680    0.533683
C     -0.214537   -1.303389   -0.140115
C      1.241236   -0.952067   -0.466949
C      1.419164    0.407056    0.093590
C      0.320042    0.896804    0.630374
O      2.628538    1.095696    0.050413
H     -2.794761   -0.178399   -0.366693
H     -1.616704    0.823176   -1.304620
H     -2.347014    1.464545    0.220510
H     -1.180640   -0.302499    1.555692
H     -0.246327   -2.164252    0.563476
H     -0.759221   -1.591130   -1.066766
H      1.408695   -0.932358   -1.565308
H      1.944728   -1.663215    0.016929
H      0.258604    1.876212    1.087892
H      2.719320    2.026370    0.441165
