37

C      2.733592   -1.369427   -2.292461
C      3.758973   -1.469284   -1.354866
C      3.543941   -1.070520   -0.034225
C      2.294150   -0.565156    0.374647
C      1.254473   -0.461178   -0.590878
C      1.489298   -0.867074   -1.914493
C     -0.084094    0.092780   -0.267612
C     -0.303213    1.483332   -0.291779
C      0.691916    2.425025   -0.604109
C      0.395188    3.792416   -0.602598
C     -0.894200    4.250263   -0.292687
O     -1.137168    5.486378   -0.297639
C     -1.915817    3.347378    0.022188
C     -1.661564    1.976318    0.031990
O     -2.625813    1.119369    0.327826
C     -2.434952   -0.194943    0.351911
C     -3.513539   -1.024945    0.677184
C     -3.353773   -2.414747    0.718781
C     -2.107973   -2.979730    0.434279
C     -1.021376   -2.164283    0.107077
C     -1.165830   -0.761496    0.057147
F     -1.948178   -4.326109    0.476085
O     -4.427711   -3.241303    1.042941
F      1.373312    4.682843   -0.906154
C      2.122590   -0.165890    1.798551
O      0.985000    0.100058    2.270406
O      3.231050   -0.095182    2.639016
H      2.904010   -1.679087   -3.315476
H      4.724562   -1.858464   -1.651217
H      4.360580   -1.167102    0.670087
H      0.704107   -0.788890   -2.656992
H      1.699516    2.114725   -0.849271
H     -2.908264    3.712133    0.259181
H     -4.478778   -0.586758    0.899652
H     -0.071868   -2.639564   -0.102617
H     -5.343351   -2.862175    1.254552
H      3.131205    0.170290    3.611573
