10

C     -0.891983   -0.793294    0.100076
O     -1.845631   -1.611218    0.178519
C     -1.004431    0.647060   -0.031880
O     -2.073614    1.309010   -0.089051
N      0.296174    1.216389   -0.088617
C      1.168410    0.090096    0.011919
O      2.423304    0.186867   -0.001166
N      0.481420   -1.156434    0.128756
H      0.553920    2.223758   -0.182043
H      0.892431   -2.112235    0.215167
