19

C     -2.573304   -0.848292   -0.159508
C     -1.419879    0.091727   -0.022177
C     -1.476739    1.481594    0.011271
N     -0.230048    2.002334    0.082393
C      0.611428    0.953535    0.082447
C      2.004592    0.987010    0.127968
C      2.692842   -0.240045    0.101368
C      1.981520   -1.458579    0.027541
C      0.575305   -1.461622   -0.018977
C     -0.078417   -0.229854    0.013749
H     -2.453208   -1.697662    0.544992
H     -3.525608   -0.325722    0.070492
H     -2.612895   -1.236269   -1.198501
H     -2.379175    2.078086   -0.022779
H      0.023379    3.014763    0.117627
H      2.540877    1.925708    0.179667
H      3.774469   -0.250071    0.135299
H      2.521718   -2.396052    0.005365
H      0.023141   -2.390587   -0.078233
