18

C      1.676272   -0.663513   -0.212177
C      0.486138    0.073590    0.396323
N     -0.754604   -0.555227   -0.047010
C     -1.953019   -0.173114    0.287806
N     -3.076580   -0.888053   -0.225916
N     -2.171123    0.945545    1.157779
C      2.964457   -0.036079    0.227125
O      3.580745   -0.497922    1.223298
O      3.467338    1.082461   -0.430930
H      1.654735   -1.730377    0.101146
H      1.610924   -0.628772   -1.321198
H      0.550898    0.026710    1.506024
H      0.502011    1.136450    0.067836
H     -2.940218   -1.705821   -0.861127
H     -4.048346   -0.602333    0.026968
H     -1.386420    1.502359    1.561031
H     -3.144667    1.227538    1.407777
H      2.981460    1.486558   -1.222667
