27

C      4.550689    0.618683    0.041561
C      3.157854    0.061994    0.007231
C      2.054001    0.925077   -0.043050
C      0.743134    0.413777   -0.038810
C      0.541012   -0.981032    0.030380
C      1.653005   -1.838394    0.099396
C      2.949088   -1.319987    0.094381
C     -0.835611   -1.530281    0.035780
O     -1.015841   -2.777815    0.096386
C     -2.000919   -0.617259   -0.029870
C     -3.312190   -1.127760   -0.025382
C     -4.407438   -0.263664   -0.087075
C     -4.208179    1.115290   -0.153721
C     -2.912731    1.636667   -0.159022
C     -1.799187    0.778574   -0.097370
C     -0.422600    1.327340   -0.102965
O     -0.242780    2.574963   -0.162937
H      4.609146    1.562972   -0.540636
H      5.272704   -0.100947   -0.399968
H      4.840574    0.822979    1.093358
H      2.220511    1.994839   -0.086201
H      1.521811   -2.911481    0.160987
H      3.791084   -1.998389    0.157734
H     -3.491724   -2.194343    0.025816
H     -5.412947   -0.664340   -0.083161
H     -5.059432    1.782147   -0.201420
H     -2.783032    2.710393   -0.211380
