30

C      5.087230    0.870943   -0.835426
C      3.707257    1.355827   -0.421388
O      2.836273    0.240201   -0.267901
C      1.495355    0.374554    0.106979
O      1.018824    1.516349    0.354590
C      0.659786   -0.836786    0.270901
C      1.282228   -2.004071    0.749524
C      0.535024   -3.149332    1.026444
C     -0.844052   -3.147706    0.831134
C     -1.479149   -2.008579    0.335486
C     -0.742576   -0.850249    0.027593
C     -1.463205    0.280460   -0.600564
O     -0.895737    0.991603   -1.474831
O     -2.799009    0.519099   -0.260967
C     -3.563631    1.570891   -0.840521
C     -4.967959    1.559475   -0.258629
H      5.499431    0.192199   -0.058953
H      5.023689    0.325276   -1.800667
H      5.769385    1.738828   -0.955472
H      3.308149    2.039011   -1.202286
H      3.785129    1.906628    0.541082
H      2.348369   -2.021266    0.941138
H      1.025679   -4.036436    1.405859
H     -1.421835   -4.035949    1.052138
H     -2.547900   -2.044529    0.161852
H     -3.082992    2.549080   -0.621520
H     -3.621372    1.430377   -1.941754
H     -5.567323    2.378506   -0.709095
H     -4.923953    1.706961    0.841277
H     -5.461117    0.588633   -0.477214
