42

C      4.799071    2.570118    0.290202
C      3.891234    1.377295   -0.029762
C      4.283550    0.754955   -1.376022
C      3.958022    0.335255    1.102827
O      3.076240   -0.757996    0.849853
C      1.684115   -0.670103    0.970273
O      1.150462    0.375737    1.432238
C      0.848176   -1.835662    0.608886
C      1.351262   -3.118494    0.889868
C      0.571795   -4.254361    0.668543
C     -0.720410   -4.127274    0.163959
C     -1.230368   -2.865573   -0.144419
C     -0.453673   -1.708668    0.048956
C     -1.012304   -0.414627   -0.405573
O     -0.255185    0.476561   -0.879706
O     -2.394634   -0.207878   -0.358339
C     -3.008190    1.003112   -0.790598
C     -4.529956    0.917476   -0.601314
C     -4.893020    0.758538    0.880994
C     -5.212844    2.159061   -1.186334
H      4.723116    3.335775   -0.511238
H      4.488547    3.041614    1.247021
H      5.858377    2.245305    0.377137
H      2.848948    1.755445   -0.111925
H      5.318194    0.351463   -1.335397
H      4.227762    1.518088   -2.181444
H      3.586218   -0.068810   -1.638396
H      3.701140    0.804030    2.078327
H      4.993328   -0.060439    1.183752
H      2.341014   -3.241399    1.312914
H      0.966808   -5.234940    0.901054
H     -1.324774   -5.009901   -0.001435
H     -2.225825   -2.797196   -0.566356
H     -2.598458    1.858460   -0.208688
H     -2.775592    1.161284   -1.866787
H     -4.904019    0.025692   -1.151547
H     -4.444184   -0.170731    1.291685
H     -5.995279    0.686471    0.999447
H     -4.525259    1.625950    1.470412
H     -6.315303    2.078554   -1.075080
H     -4.982340    2.249018   -2.269384
H     -4.865760    3.078795   -0.667821
