10

C      1.222372   -0.250406    0.889182
C      0.228006   -0.516958   -0.198225
O      0.295232   -1.594002   -0.848687
C     -0.844984    0.442912   -0.497532
O     -0.942735    1.515432    0.157303
O     -1.759442    0.165576   -1.509242
F      0.613795   -0.399913    2.121344
H      2.073496   -0.960553    0.817051
H      1.619323    0.782466    0.797201
H     -2.505064    0.815446   -1.728396
