31

C      4.229679    0.260054    0.556407
C      2.748909    0.048343    0.440439
C      1.909731    1.111889    0.089637
C      0.527260    0.918119   -0.067473
C     -0.038915   -0.364498    0.165603
C      0.831429   -1.432919    0.472720
C      2.204696   -1.228013    0.607930
C     -1.543161   -0.630614   -0.015938
C     -2.353178    0.692362   -0.136498
C     -1.657920    1.722031   -1.023448
C     -0.322201    2.117692   -0.404741
C     -2.105611   -1.404447    1.199996
C     -1.752442   -1.483108   -1.287817
H      4.674429   -0.460696    1.275334
H      4.701861    0.117586   -0.437986
H      4.451134    1.286382    0.919283
H      2.334700    2.097247   -0.064347
H      0.455176   -2.438707    0.596577
H      2.845121   -2.069640    0.842108
H     -3.369741    0.491863   -0.541363
H     -2.496552    1.147150    0.870164
H     -2.299938    2.625230   -1.110224
H     -1.501313    1.319991   -2.046759
H     -0.502093    2.699263    0.525571
H      0.214612    2.776970   -1.121625
H     -1.856073   -0.876244    2.145707
H     -3.211923   -1.490069    1.129544
H     -1.702375   -2.436440    1.259311
H     -1.266173   -2.476616   -1.184430
H     -1.314723   -0.985747   -2.178405
H     -2.834404   -1.654415   -1.475276
