20

C      2.818775   -0.592925    0.304453
C      1.804708    0.459756    0.627859
O      2.189652    1.536638    1.157428
C      0.374135    0.279039    0.291746
C     -0.634436    0.500674    1.261321
C     -1.981753    0.371892    0.906780
C     -2.345497    0.004465   -0.389366
C     -1.355489   -0.230826   -1.348071
C     -0.000724   -0.089573   -1.018601
O      0.970832   -0.295433   -1.998520
O     -3.694040   -0.125567   -0.714095
O     -0.334731    0.823970    2.586829
H      3.558615   -0.668227    1.128975
H      3.349465   -0.324785   -0.632649
H      2.329372   -1.582222    0.180621
H     -2.750961    0.544621    1.649365
H     -1.638924   -0.512903   -2.354373
H      0.724512   -0.554998   -2.946570
H     -3.991552   -0.391309   -1.645649
H      0.608040    0.847714    2.952518
