20

C     -0.638897    2.309377    0.284623
C      0.081588    0.992257    0.145705
C      1.468235    0.955504    0.366896
C      2.173142   -0.244262    0.277639
C      1.500206   -1.422590   -0.052969
C      0.125839   -1.411524   -0.307810
C     -0.604600   -0.202202   -0.199569
C     -2.068020   -0.195301   -0.416354
O     -2.592098    0.648935   -1.191483
O     -2.875732   -1.112977    0.249157
O     -0.473399   -2.613160   -0.693796
O      3.545672   -0.254066    0.516878
H     -0.915000    2.691429   -0.720219
H     -0.003839    3.071510    0.784696
H     -1.554831    2.184593    0.899792
H      2.006149    1.860679    0.622096
H      2.050686   -2.351811   -0.133187
H     -3.879542   -1.116445    0.113206
H     -1.433248   -2.681562   -1.004760
H      4.087689   -1.108384    0.459459
