27

C     -0.921478    1.632480   -0.775214
N     -1.221745    0.711748    0.341599
C     -2.590442    0.175391    0.226285
C     -2.495798   -1.158101   -0.516563
C     -1.022472   -1.546963   -0.492716
C     -0.363174   -0.491974    0.399332
C      1.122826   -0.237863    0.144236
C      1.675249   -0.146768   -1.150450
N      3.000959    0.106379   -1.316416
C      3.834981    0.285368   -0.259760
C      3.335770    0.224300    1.040021
C      1.978727   -0.030776    1.239986
O     -1.108947    1.402966    1.506408
H     -1.651335    2.471786   -0.794783
H      0.083915    2.089781   -0.652893
H     -0.970877    1.105725   -1.753063
H     -3.016979   -0.015598    1.238702
H     -3.284902    0.872214   -0.296122
H     -2.845074   -1.037801   -1.565709
H     -3.118098   -1.931244   -0.014806
H     -0.883836   -2.567524   -0.072438
H     -0.632763   -1.539519   -1.529483
H     -0.440871   -0.916010    1.431027
H      1.061813   -0.251163   -2.032240
H      4.884710    0.483816   -0.429896
H      3.993902    0.376593    1.885679
H      1.595939   -0.067244    2.252428
