19

C     -1.849478   -0.489097   -1.560251
C     -0.887000   -0.039544   -0.495027
C     -1.241626    0.968364    0.428749
C     -0.329707    1.355322    1.414488
C      0.929190    0.758167    1.491922
C      1.304564   -0.236863    0.574973
C      0.383977   -0.636272   -0.410375
C      2.645575   -0.863642    0.671924
O      3.272165   -0.832941    1.764519
O      3.249857   -1.478977   -0.423898
O     -2.487339    1.598820    0.395109
H     -2.769866   -0.892921   -1.088473
H     -2.113285    0.368542   -2.214156
H     -1.413220   -1.285796   -2.199669
H     -0.599124    2.125775    2.125992
H      1.614743    1.083996    2.264526
H      0.638519   -1.429691   -1.100181
H      2.853317   -1.447714   -1.354084
H     -3.201261    1.374474   -0.286087
