25

C     -2.833379    1.909441    0.339065
C     -1.967238    1.693795    1.414508
C     -1.233345    0.506297    1.496416
C     -1.369105   -0.479264    0.503947
C     -2.232214   -0.249446   -0.580775
C     -2.964408    0.939416   -0.658520
C     -0.551161   -1.739286    0.567215
C      0.732088   -1.552698   -0.181873
O      0.809573   -1.926644   -1.383688
N      1.846622   -0.907399    0.450030
C      3.077201   -0.589010   -0.268403
C      2.844547    0.551102   -1.206981
O      2.728475    1.722751   -0.758198
O      2.722787    0.313444   -2.572313
H     -3.399614    2.829721    0.276549
H     -1.861841    2.448459    2.183168
H     -0.559220    0.355987    2.330520
H     -2.335106   -0.988850   -1.365426
H     -3.630589    1.110322   -1.494259
H     -1.122527   -2.588276    0.131860
H     -0.331063   -2.006200    1.623610
H      1.776465   -0.643886    1.458862
H      3.866616   -0.301629    0.459195
H      3.435607   -1.482432   -0.823610
H      2.550830    1.074286   -3.218598
