24

C      2.705312    0.820143    0.265149
C      1.720141    0.110630   -0.669619
C      1.532183   -1.377188   -0.287922
C      0.112591   -1.525375    0.290843
C     -0.535527   -0.221353    0.000201
C      0.352989    0.677661   -0.531363
C     -0.070013    1.958746   -0.887663
N     -1.373089    2.302993   -0.690721
C     -2.275375    1.430540   -0.153770
C     -1.875321    0.132758    0.217956
C     -2.858865   -0.847466    0.787825
H      2.365904    0.750575    1.321545
H      3.709614    0.353954    0.178217
H      2.794675    1.891275   -0.014873
H      2.066377    0.202473   -1.722643
H      2.291225   -1.728885    0.445375
H      1.622930   -2.004382   -1.202105
H     -0.435121   -2.357219   -0.202187
H      0.153371   -1.687714    1.389441
H      0.621592    2.671851   -1.316051
H     -3.301068    1.748634   -0.019165
H     -3.820920   -0.352874    1.039887
H     -2.448973   -1.299735    1.715298
H     -3.054631   -1.650040    0.046346
