41

C      0.771521   -1.517541   -1.971794
C      1.611277   -0.592957   -1.142643
C      1.033281    0.346042   -0.260450
C      1.864932    1.222265    0.442260
C      3.254712    1.131647    0.308329
C      4.111666    1.985929    1.017886
C      5.496955    1.867336    0.868223
C      6.032932    0.898994    0.012529
C      5.184968    0.043140   -0.700049
C      3.795856    0.155341   -0.555637
N      2.966283   -0.667104   -1.251259
F      5.713056   -0.891911   -1.529947
F      7.377623    0.791824   -0.126072
O     -0.352966    0.450364   -0.090492
C     -1.185593   -0.588035    0.360286
C     -2.583870   -0.544333    0.091364
C     -3.405155   -1.536335    0.694605
C     -2.842127   -2.575958    1.437780
C     -1.468674   -2.637261    1.638472
C     -0.646312   -1.643743    1.119464
F     -4.756258   -1.506260    0.604906
C     -3.173854    0.621229   -0.732392
C     -4.476505    0.244903   -1.478170
C     -3.445552    1.799149    0.224169
O     -2.235572    1.008129   -1.712988
H      0.483872   -2.404987   -1.371717
H      1.344205   -1.862264   -2.858677
H     -0.141590   -0.999911   -2.333913
H      1.423740    1.958086    1.104409
H      3.712257    2.740110    1.685395
H      6.155972    2.527525    1.417325
H     -3.480162   -3.332323    1.877080
H     -1.042676   -3.441643    2.224293
H      0.413713   -1.685961    1.332725
H     -4.372967   -0.747147   -1.967834
H     -4.699818    0.991221   -2.270618
H     -5.357482    0.244341   -0.803546
H     -2.497947    2.145675    0.689535
H     -3.897416    2.654240   -0.323238
H     -4.144608    1.492319    1.032039
H     -2.541718    1.855867   -2.131202
