29

C     -2.233666    2.274379   -0.188980
C     -1.721233    0.912772   -0.526773
O     -1.169411    0.716776   -1.643313
N     -1.816733   -0.146085    0.437378
C     -1.185938   -1.456477    0.245610
C      0.120051   -1.546569    1.054041
C      1.132608   -0.538922    0.573149
C      1.251683    0.708159    1.208978
C      2.156715    1.659953    0.730202
C      2.948054    1.377089   -0.391301
C      2.827652    0.139267   -1.031204
C      1.921993   -0.813693   -0.555369
O      3.852673    2.317969   -0.877901
C     -2.136418   -2.540906    0.666381
O     -2.598481   -2.564438    1.839369
O     -2.502551   -3.530071   -0.241266
H     -1.535888    2.763612    0.522111
H     -2.316096    2.897785   -1.104557
H     -3.236816    2.193470    0.279358
H     -2.227843    0.076662    1.372818
H     -0.950231   -1.616804   -0.829828
H      0.548942   -2.568377    0.953695
H     -0.091032   -1.388082    2.135086
H      0.636897    0.946681    2.068072
H      2.238656    2.617725    1.228029
H      3.432880   -0.082344   -1.901015
H      1.830929   -1.762862   -1.068898
H      3.962458    3.223936   -0.437386
H     -3.139854   -4.270604    0.026380
