34

C     -3.178257    1.233817    2.616059
C     -2.888662    0.925628    1.169473
C     -1.696168    1.303536    0.657924
C     -1.262494    1.087016   -0.772036
C      0.101733    0.446366   -0.800040
C      0.244556   -0.943408   -0.598105
C      1.532348   -1.515829   -0.602049
C      2.662873   -0.717194   -0.791357
C      2.517690    0.672413   -0.978045
C      1.242069    1.248434   -0.976838
C      3.669281    1.445178   -1.159604
C      4.918065    0.824883   -1.153304
C      4.985542   -0.559357   -0.963894
O      6.102959   -1.138776   -0.955114
O      3.873828   -1.270094   -0.791990
O     -0.908362   -1.719847   -0.394236
C     -0.908511   -3.124123   -0.161060
C     -3.929506    0.212809    0.339749
H     -4.182385    0.873058    2.921537
H     -3.138187    2.331390    2.781341
H     -2.421400    0.741522    3.262967
H     -0.999487    1.836710    1.301333
H     -1.970155    0.458032   -1.349270
H     -1.238092    2.074247   -1.281436
H      1.667740   -2.578873   -0.455112
H      1.134029    2.318706   -1.112046
H      3.603994    2.516743   -1.305515
H      5.818426    1.410315   -1.293367
H     -0.467022   -3.655650   -1.030309
H     -0.337578   -3.357806    0.762267
H     -1.954580   -3.468275   -0.028219
H     -3.531143   -0.761275   -0.013465
H     -4.213415    0.839637   -0.531766
H     -4.849731    0.010069    0.925904
