29

C      4.897618   -0.335974   -0.671066
C      4.587951    0.910107   -0.122347
C      3.253318    1.279368    0.071488
C      2.211219    0.398962   -0.276141
C      2.536300   -0.850292   -0.838852
C      3.872986   -1.213701   -1.031210
C      0.798659    0.801614   -0.072091
O      0.512957    2.026027    0.035374
N     -0.243142   -0.182172    0.042814
C     -1.638175    0.146762   -0.073080
C     -2.065615    0.967781   -1.132155
C     -3.421858    1.229595   -1.327117
C     -4.370454    0.667085   -0.475694
C     -3.966210   -0.151703    0.580071
C     -2.602163   -0.416385    0.804277
C     -2.225054   -1.240583    1.978411
O     -1.082929   -1.136932    2.501180
O     -3.152647   -2.113100    2.542073
H      5.931272   -0.619469   -0.821666
H      5.382718    1.591197    0.153409
H      3.036904    2.249029    0.502503
H      1.763764   -1.539562   -1.152530
H      4.114239   -2.175132   -1.466039
H      0.015639   -1.168438    0.266987
H     -1.346807    1.383071   -1.827124
H     -3.738614    1.859498   -2.148387
H     -5.422555    0.868073   -0.631731
H     -4.723974   -0.562346    1.235910
H     -2.915347   -2.672382    3.352732
