23

C     -2.568925   -0.809985   -0.443161
C     -1.094190   -0.651077   -0.065443
C     -0.798030    0.699903    0.645630
C      0.687040    1.113376    0.459105
C      1.567548   -0.137240    0.298624
C      1.069139   -0.995303   -0.901554
O     -0.298742   -0.776317   -1.229824
O      1.275433   -2.361483   -0.650196
O      2.908827    0.227940    0.096775
O      0.838311    1.928269   -0.678649
O     -1.648377    1.716482    0.173928
H     -2.743598   -1.830657   -0.845021
H     -3.212235   -0.668275    0.451451
H     -2.856508   -0.073983   -1.223965
H     -0.868856   -1.484157    0.643245
H     -0.989013    0.543564    1.733978
H      1.024024    1.665513    1.368919
H      1.487127   -0.744048    1.232464
H      1.653979   -0.705839   -1.805122
H      2.256092   -2.513564   -0.684248
H      3.255170    0.542859    0.972442
H      0.670673    2.863809   -0.391569
H     -1.614888    2.450213    0.842191
