29

C     -4.203588   -0.829655    0.620578
C     -2.724305   -0.500122    0.441739
C     -2.306661   -0.610622   -1.030882
C     -0.885005   -0.083753   -1.291311
C      0.225851   -0.969421   -0.692588
C      0.581292   -0.568197    0.718500
C      1.369448    0.474691    1.040187
C      2.090188    1.347489    0.040356
C      3.462524    0.771201   -0.328447
C      4.399994    0.790047    0.840095
O      5.034783    1.839204    1.126007
O      4.539442   -0.337999    1.638732
H     -4.414309   -1.861418    0.266664
H     -4.472441   -0.760860    1.695767
H     -4.831311   -0.110908    0.051901
H     -2.538354    0.531040    0.813453
H     -2.134358   -1.212701    1.054089
H     -2.386454   -1.667428   -1.367920
H     -3.008526   -0.009119   -1.649668
H     -0.739051   -0.055200   -2.393194
H     -0.803391    0.965266   -0.932900
H     -0.094681   -2.033508   -0.695282
H      1.130676   -0.918648   -1.333904
H      0.188927   -1.174556    1.529109
H      1.552645    0.668689    2.093176
H      2.222556    2.359846    0.480178
H      1.488208    1.480348   -0.881487
H      3.899167    1.377603   -1.151260
H      3.356733   -0.269664   -0.701689
