17

C     -1.103589   -1.140381    0.743454
C     -0.236896   -0.005185    1.272901
C      0.067861    0.438345   -0.166859
C     -0.827561   -0.696409   -0.687362
C      1.523402    0.257749   -0.544632
O      2.166224    1.193970   -1.093384
O      2.163837   -0.953051   -0.290519
C     -0.463368    1.815602   -0.497068
O     -0.338677    2.760205    0.327099
O     -1.004355    2.074534   -1.751009
H     -2.173247   -1.030140    1.026949
H     -0.676413   -2.142236    0.968052
H      0.647932   -0.380342    1.833455
H     -0.837038    0.724472    1.860476
H     -0.287204   -1.475131   -1.270158
H     -1.757293   -0.352813   -1.192543
H      3.136384   -1.089190   -0.538850
