14

C      1.144789   -0.256297    0.097678
C     -0.357083   -0.009893    0.310799
C     -0.729523    1.392877   -0.092068
O     -0.648228    1.755554   -1.295825
O     -1.154235    2.301059    0.869562
N     -1.154504   -0.987315   -0.439423
O      1.892599    0.623954    0.891392
H      1.406255   -0.113157   -0.975416
H      1.388520   -1.304241    0.383092
H     -0.576511   -0.134312    1.395578
H     -2.173526   -0.805970   -0.286260
H     -0.944466   -0.929676   -1.462984
H     -0.940005   -1.953482   -0.100697
H      2.845918    0.420898    0.704574
