36

C      4.334028   -0.441290    1.170194
C      3.020207   -0.149636    1.546968
C      2.013035   -0.014049    0.585230
C      2.344421   -0.167811   -0.775278
C      3.658406   -0.460157   -1.153632
C      4.666840   -0.600581   -0.184748
C      6.058145   -0.910028   -0.581625
O      6.361280   -1.053419   -1.796055
O      7.051449   -1.047134    0.381343
O      0.713961    0.283494    1.033399
C     -0.472707    0.335727    0.237128
C     -1.039667   -1.088303    0.051519
C     -2.368692   -1.019810   -0.723577
C     -3.316832   -0.006457   -0.066254
C     -2.579347    1.336968    0.141661
O     -1.415081    1.137191    0.926856
C     -3.480064    2.352372    0.860701
O     -2.783026    3.546653    1.093596
O     -4.434807    0.174837   -0.899273
O     -2.984564   -2.282350   -0.737613
O     -0.120452   -1.882155   -0.652539
H      5.087690   -0.541493    1.941114
H      2.781738   -0.029942    2.596352
H      1.603601   -0.067062   -1.554043
H      3.884276   -0.575484   -2.206492
H     -0.239865    0.805477   -0.744737
H     -1.224970   -1.520775    1.064370
H     -2.163415   -0.682405   -1.768845
H     -3.626795   -0.411833    0.928237
H     -2.314547    1.773846   -0.850453
H     -4.394447    2.560638    0.260101
H     -3.802576    1.937355    1.839669
H     -2.728263    4.018572    0.221732
H     -5.221247    0.311372   -0.309049
H     -2.573110   -2.797191   -1.480073
H     -0.294604   -2.825136   -0.395887
