32

C     -3.065217    3.147622   -0.871710
O     -2.269684    1.991321   -0.631962
C     -2.783831    0.726689   -0.304467
C     -4.167760    0.490221   -0.182977
C     -4.639315   -0.782695    0.144857
C     -3.741171   -1.829191    0.354258
C     -2.367456   -1.607513    0.236759
C     -1.879282   -0.327535   -0.093565
O     -0.506748   -0.063267   -0.221180
C      0.524678   -1.029136   -0.030971
C      1.892904   -0.372787   -0.248095
C      3.013949   -1.413230   -0.118919
O      4.277585   -0.839647   -0.453469
C      5.071190   -0.126896    0.452288
O      4.730625   -0.013438    1.660952
N      6.285876    0.467340    0.003381
O      2.085152    0.645435    0.699548
H     -2.399475    4.002796   -1.107938
H     -3.740846    2.973875   -1.735729
H     -3.657714    3.397905    0.033551
H     -4.886279    1.282964   -0.339771
H     -5.703501   -0.957991    0.236726
H     -4.110061   -2.814634    0.608192
H     -1.694197   -2.436889    0.404279
H      0.467519   -1.437417    1.002161
H      0.389518   -1.856593   -0.761707
H      1.930751    0.048452   -1.280616
H      3.038962   -1.846786    0.905426
H      2.819906   -2.244161   -0.830533
H      6.892367    0.999367    0.666280
H      6.577344    0.375262   -0.994720
H      1.614213    1.450557    0.359320
