33

C     -4.549629   -1.443046    0.889500
C     -3.987895   -0.340652   -0.018095
C     -2.506735   -0.538122   -0.262039
C     -1.578848    0.408690    0.235569
C     -0.226013    0.187562   -0.005764
C      0.214191   -0.898456   -0.694537
C     -0.653556   -1.857711   -1.202212
C     -2.030552   -1.672106   -0.980373
O      1.516170   -0.849393   -0.768815
C      1.872543    0.255921   -0.131851
N      0.814481    0.949704    0.370220
C      3.276428    0.689892    0.017439
C      3.591740    1.875299    0.705578
C      4.923704    2.279020    0.842375
C      5.950741    1.505457    0.295104
C      5.646888    0.326195   -0.390243
C      4.316458   -0.081575   -0.529614
F      7.241282    1.898863    0.428997
C     -4.730847   -0.247936   -1.327809
O     -5.221483   -1.277905   -1.863320
O     -4.832584    0.972723   -1.989103
H     -4.008967   -1.446032    1.860181
H     -4.443806   -2.444823    0.421304
H     -5.626099   -1.256524    1.091765
H     -4.149952    0.620469    0.518697
H     -1.899891    1.282508    0.788634
H     -0.283435   -2.715846   -1.747691
H     -2.724976   -2.406788   -1.366766
H      2.811260    2.489302    1.137201
H      5.158480    3.192611    1.373364
H      6.441992   -0.273476   -0.814403
H      4.101609   -0.998534   -1.064228
H     -4.422698    1.814710   -1.602767
