24

C      5.091122    0.168872    0.484585
O      3.670341    0.151772    0.418158
C      2.950037   -0.953655   -0.048173
O      3.554083   -1.991322   -0.433510
C      1.479786   -0.921186   -0.097650
C      0.780132    0.142762    0.319476
C     -0.701938    0.214461    0.298921
C     -1.488440   -0.587089   -0.553043
C     -2.884237   -0.477936   -0.547654
C     -3.511283    0.442929    0.307438
C     -2.733593    1.252397    1.144539
C     -1.341010    1.143068    1.135980
O     -4.900899    0.552914    0.319412
O     -3.629946   -1.289683   -1.402081
H      5.449926   -0.637377    1.158900
H      5.520874    0.029065   -0.529933
H      5.425508    1.147844    0.884952
H      0.975654   -1.805919   -0.461554
H      1.312629    0.989619    0.737046
H     -1.032563   -1.282938   -1.243608
H     -3.207991    1.968773    1.803226
H     -0.760771    1.780110    1.792686
H     -5.376006    1.210628    0.926532
H     -4.641416   -1.248109   -1.437531
