45

C     -2.102176    0.604793   -1.780297
C     -2.127656    0.637790   -0.217227
C     -1.470165    1.939534    0.290153
C      0.055167    1.953908    0.010946
C      0.788496    0.673093    0.519004
C      0.073565   -0.624440    0.036301
C     -1.408360   -0.543171    0.448270
C     -2.321531   -1.736930    0.202887
C     -3.744525   -1.137985    0.268804
C     -3.567353    0.404414    0.284266
O     -4.523589    1.064517   -0.507007
O     -4.501672   -1.547521   -0.841276
C      0.781414   -1.836021    0.655085
C      2.203113   -1.947985    0.098418
C      2.944030   -0.628569    0.057704
C      2.278015    0.623467    0.173256
C      3.054070    1.802065    0.122147
C      4.429078    1.746388   -0.110677
C      5.067344    0.518556   -0.270789
C      4.326567   -0.663520   -0.186871
O      6.439581    0.482613   -0.508699
H     -1.082471    0.680798   -2.200966
H     -2.672016    1.466007   -2.189287
H     -2.558860   -0.321434   -2.183749
H     -1.943974    2.820507   -0.194963
H     -1.628945    2.044197    1.386524
H      0.453956    2.846215    0.535868
H      0.249231    2.097876   -1.072488
H      0.734210    0.703631    1.631113
H      0.154986   -0.721024   -1.066926
H     -1.418364   -0.388238    1.556335
H     -2.112912   -2.186142   -0.792974
H     -2.183341   -2.514324    0.985674
H     -4.252228   -1.452814    1.210437
H     -3.650861    0.763270    1.338493
H     -5.388161    0.988101   -0.025264
H     -4.729609   -2.501865   -0.690205
H      0.816544   -1.740740    1.763158
H      0.235828   -2.772096    0.408973
H      2.768775   -2.677800    0.717897
H      2.153257   -2.350434   -0.936949
H      2.615062    2.776737    0.267349
H      5.002624    2.663534   -0.158780
H      4.829853   -1.615118   -0.310565
H      6.934002   -0.393839   -0.628247
