20

C      2.561933   -0.509122    0.046537
C      1.220464    0.162764   -0.083754
C      0.011722   -0.545723    0.142215
C     -1.226833    0.133713    0.006486
C     -1.238423    1.492251   -0.348152
C     -0.046784    2.177999   -0.567604
C      1.173700    1.520884   -0.437095
C     -2.538761   -0.569672    0.234613
N      0.041644   -1.938692    0.505226
H      2.633352   -1.350117   -0.674828
H      3.396958    0.192415   -0.164997
H      2.692632   -0.891317    1.080745
H     -2.174402    2.026506   -0.456162
H     -0.069279    3.225289   -0.840534
H      2.086258    2.077082   -0.613264
H     -2.583858   -0.953954    1.275302
H     -3.403491    0.111685    0.085739
H     -2.643142   -1.412754   -0.480268
H      0.935982   -2.464142    0.612337
H     -0.829672   -2.485095    0.677457
