19

C      2.054271   -0.102344   -0.294635
C      0.908356   -0.541478    0.624019
C     -0.515287   -0.102375    0.174639
C     -0.634488    1.437859    0.132254
C     -0.853505   -0.683942   -1.213463
N     -1.480081   -0.638667    1.145872
H      3.016357   -0.455985    0.132447
H      2.105590    1.002559   -0.372094
H      1.951288   -0.547770   -1.304905
H      1.111830   -0.138742    1.640716
H      0.937342   -1.650412    0.706577
H     -0.320870    1.880328    1.101945
H     -1.685748    1.739880   -0.063629
H     -0.007594    1.869658   -0.675600
H     -0.218667   -0.236332   -2.006431
H     -0.710959   -1.785902   -1.217926
H     -1.912052   -0.470490   -1.475993
H     -2.450694   -0.352887    0.877620
H     -1.295088   -0.222958    2.088587
