19

C      3.235498    0.964656    0.134708
C      2.940572   -0.433302   -0.320563
O      3.902239   -1.204927   -0.579496
C      1.562523   -0.942708   -0.477823
C      0.473131   -0.206455   -0.229508
C     -0.877827   -0.774976   -0.406118
C     -1.991578   -0.064285   -0.170014
C     -3.328658   -0.681460   -0.353719
O     -3.452671   -1.935612   -0.349461
O     -4.467251    0.099394   -0.542615
O     -1.883221    1.260356    0.259744
H      4.332173    1.135099    0.182879
H      2.808912    1.129345    1.146293
H      2.796985    1.693597   -0.578563
H      1.444572   -1.967400   -0.812246
H      0.574770    0.817779    0.105081
H     -0.960568   -1.801997   -0.744890
H     -4.424422    1.104365   -0.650443
H     -2.685179    1.808532    0.542091
