21

C     -3.943505   -0.889176    0.204993
C     -2.518862   -0.704622   -0.205021
O     -2.123646   -1.189425   -1.299509
N     -1.642306    0.098945    0.599920
C     -0.221281    0.192815    0.399229
C      0.438779    1.390230    0.708479
C      1.822307    1.502607    0.543331
C      2.575226    0.411048    0.079235
C      1.916488   -0.797279   -0.208221
C      0.532509   -0.907729   -0.043625
C      4.039506    0.532734   -0.094198
O      4.719213   -0.444225   -0.507528
O      4.686335    1.728542    0.196344
H     -4.007072   -1.013326    1.306380
H     -4.533207    0.001000   -0.097313
H     -4.371264   -1.792298   -0.279802
H     -2.078220    0.715335    1.323077
H     -0.123082    2.242813    1.069157
H      2.301031    2.444202    0.781229
H      2.471358   -1.661226   -0.552362
H      0.059695   -1.860966   -0.238117
