35

C     -1.243695   -1.419380    1.870125
C     -1.857471   -0.481491    0.863777
C     -3.252625   -0.336019    0.822096
C     -3.863001    0.524692   -0.096837
C     -3.062474    1.257593   -1.002210
C     -1.673214    1.101372   -0.973930
C     -1.062879    0.228132   -0.063246
C      0.410269    0.084920   -0.093782
C      1.042205   -1.047384   -0.665853
C      2.456255   -1.131689   -0.634390
C      3.203465   -0.126477   -0.011864
C      2.573350    0.992821    0.554742
C      1.182930    1.092044    0.500363
O      3.290222    2.025849    1.177231
C      4.707876    2.057584    1.306718
O      3.156461   -2.180395   -1.236304
C      0.231124   -2.124623   -1.278436
O      0.466979   -3.332029   -1.004710
O     -0.819657   -1.808085   -2.134626
O     -3.599916    2.142104   -1.939626
O     -5.256074    0.619337   -0.074849
H     -0.329851   -0.971236    2.313741
H     -0.979881   -2.376680    1.375627
H     -1.947958   -1.633504    2.702037
H     -3.875910   -0.892337    1.512051
H     -1.064220    1.657605   -1.677083
H      4.281070   -0.219100    0.005303
H      0.697989    1.954574    0.942701
H      5.057413    1.182163    1.893834
H      5.002383    2.983978    1.840947
H      5.183030    2.059789    0.303010
H      2.718774   -2.884247   -1.815294
H     -1.393346   -2.534985   -2.545017
H     -4.586966    2.331467   -2.036708
H     -5.792653    1.203638   -0.699537
