23

C     -3.191686   -0.438252    0.780540
C     -2.634338    0.824793    0.997860
C     -1.391907    1.147530    0.443284
C     -0.699941    0.207383   -0.338732
C     -1.264046   -1.062906   -0.546983
C     -2.506572   -1.381530    0.009812
C      0.650719    0.548111   -0.915321
C      1.773046    0.426576    0.136658
C      3.062508    0.948982   -0.438049
O      3.565245    2.016368    0.002030
O      3.695655    0.268711   -1.471590
N      1.945143   -0.963004    0.581522
H     -4.152921   -0.686875    1.211422
H     -3.164094    1.553260    1.597989
H     -0.967996    2.127736    0.623506
H     -0.740605   -1.806289   -1.135369
H     -2.937215   -2.360876   -0.154169
H      0.874014   -0.107212   -1.786429
H      0.617705    1.591465   -1.300950
H      1.503939    1.052611    1.018526
H      2.761378   -1.028976    1.232817
H      1.095695   -1.280524    1.101640
H      2.106276   -1.597082   -0.235078
