17

C      2.090420   -0.906756   -0.087199
C      0.620149   -0.616750    0.041885
C     -0.272640   -1.655530    0.356963
C     -1.639751   -1.400281    0.479796
C     -2.129970   -0.108411    0.289978
C     -1.255461    0.934305   -0.023560
C      0.128868    0.692731   -0.151231
N      1.050800    1.749373   -0.473469
C      0.708995    2.960900   -0.666370
O      0.377062    4.138206   -0.853849
H      2.657142   -0.303176    0.652700
H      2.314738   -1.979622    0.093520
H      2.434599   -0.646681   -1.110348
H      0.088294   -2.665363    0.508150
H     -2.320462   -2.206030    0.722703
H     -3.190463    0.085992    0.385963
H     -1.662319    1.927093   -0.165631
