24

C      2.970821    1.012730   -0.417046
C      2.578142   -0.248909   -0.868742
C      1.393820   -0.825657   -0.399959
C      0.588824   -0.143200    0.533941
C      0.993290    1.130608    0.974953
C      2.178418    1.702271    0.502885
C     -0.715867   -0.735859    1.041127
C     -1.947829   -0.411746    0.140022
C     -2.368169    1.026890    0.313195
O     -3.237158    1.329285    1.172964
O     -1.768110    2.034137   -0.433650
N     -1.721732   -0.709887   -1.283493
O     -0.586769   -2.115823    1.291639
H      3.887421    1.457436   -0.782474
H      3.190372   -0.779761   -1.586322
H      1.107351   -1.797942   -0.776689
H      0.389101    1.683835    1.683314
H      2.481224    2.682011    0.849168
H     -0.921754   -0.284081    2.037576
H     -2.792120   -1.047284    0.493290
H     -0.960081   -0.114712   -1.681373
H     -1.480580   -1.716629   -1.418802
H     -2.600123   -0.522207   -1.820019
H     -0.658491   -2.605506    0.434497
