29

C     -3.244905   -1.226676   -0.110104
C     -3.911764   -0.120498    0.461511
C     -3.248344    1.110594    0.614178
C     -1.924640    1.195309    0.184654
C     -1.276467    0.121044   -0.370129
C     -1.908624   -1.112305   -0.534495
C      0.004561    0.541326   -0.674768
C      0.066919    1.874195   -0.277584
N     -1.116531    2.267777    0.245193
C      1.126585   -0.269332   -1.264631
C      2.047655   -0.906021   -0.200392
C      2.737929    0.148951    0.633546
O      2.260618    0.496545    1.747528
N      3.908774    0.798858    0.139000
N      1.323933   -1.869463    0.641239
H     -3.765251   -2.168906   -0.222315
H     -4.939719   -0.220535    0.784711
H     -3.750517    1.963409    1.052300
H     -1.394124   -1.956976   -0.972758
H      0.933819    2.516865   -0.360128
H     -1.349049    3.212722    0.623935
H      0.705547   -1.067506   -1.912570
H      1.732686    0.387608   -1.925918
H      2.839094   -1.464751   -0.749324
H      4.304002    0.547776   -0.794219
H      4.377734    1.541135    0.704020
H      0.890972   -2.608447    0.041121
H      1.993455   -2.334239    1.297101
H      0.575652   -1.398458    1.199301
