14

C     -1.876733    0.537895   -0.305897
N     -0.487024    0.176918   -0.059194
C      0.171647   -1.045544   -0.511082
C      1.562384   -0.878116    0.021851
O      2.489270   -1.715053   -0.136133
N      1.731807    0.339748    0.734626
C      0.460567    0.954167    0.662708
O      0.199408    2.070617    1.183669
H     -2.380939   -0.256333   -0.895952
H     -2.407336    0.660834    0.661287
H     -1.919293    1.491024   -0.873196
H      0.178561   -1.095811   -1.620486
H     -0.316338   -1.937632   -0.064538
H      2.594021    0.697285    1.202338
