24

C      0.577609   -1.510546    0.616083
C      1.957837   -1.725699    0.586279
C      2.834608   -0.663135    0.346204
C      2.323273    0.627716    0.130384
C      0.937626    0.842177    0.161207
C      0.055174   -0.222737    0.415026
C     -1.442126    0.000219    0.419214
C     -1.959430    0.133633   -1.022925
N     -3.419202    0.232840   -1.059537
O     -1.757970    1.160514    1.145370
O      3.191154    1.690566   -0.115512
O      4.207111   -0.908612    0.323208
H     -0.082855   -2.349842    0.795327
H      2.347871   -2.722730    0.747470
H      0.548635    1.837704   -0.014287
H     -1.951485   -0.873613    0.889924
H     -1.642012   -0.756133   -1.612106
H     -1.516741    1.036179   -1.500862
H     -3.849282   -0.615299   -0.624073
H     -3.731732    0.295186   -2.055374
H     -3.737026    1.091163   -0.553837
H     -1.621157    0.943002    2.104669
H      2.847676    2.630526   -0.274852
H      4.882444   -0.173080    0.153000
