28

C     -2.566339   -0.886601    1.289453
C     -1.336379   -0.191227    0.667367
C     -0.031502   -0.912360    1.129190
C      1.227273   -0.246235    0.600989
C      2.090415   -0.949598   -0.259452
C      3.246806   -0.340050   -0.755547
C      3.554321    0.974777   -0.398762
C      2.705978    1.683072    0.455194
C      1.548306    1.078586    0.954316
O      0.042325   -1.013940    2.531065
N     -1.427090   -0.176405   -0.813479
C     -2.517386    0.673448   -1.309340
H     -2.680622   -1.914658    0.884482
H     -3.491503   -0.310609    1.084972
H     -2.470520   -0.947299    2.393621
H     -1.311467    0.854606    1.048680
H     -0.079505   -1.952490    0.737147
H      1.868524   -1.968665   -0.550605
H      3.904657   -0.887700   -1.417989
H      4.449782    1.444870   -0.784271
H      2.945067    2.702185    0.730441
H      0.904310    1.647135    1.612349
H     -0.068541   -0.103600    2.910621
H     -1.558045   -1.149134   -1.178376
H     -0.541451    0.204360   -1.219023
H     -3.503890    0.193402   -1.138316
H     -2.407867    0.819548   -2.405976
H     -2.495658    1.674585   -0.826035
