18

C     -1.674678    0.929813   -0.025686
C     -0.507735    1.693253   -0.051154
C      0.746072    1.085599    0.102314
C      0.833821   -0.313446    0.284845
C     -0.354110   -1.071709    0.308377
C     -1.606548   -0.458914    0.154341
C     -2.829802   -1.282663    0.184010
O     -3.968845   -0.761749    0.048528
C      2.142903   -0.997924    0.451416
O      2.189359   -2.247848    0.612540
O      3.334372   -0.277976    0.432954
O      1.894947    1.875978    0.072330
H     -2.629272    1.426628   -0.146858
H     -0.578745    2.764536   -0.191155
H     -0.308684   -2.145586    0.447146
H     -2.758051   -2.353801    0.324040
H      4.226636   -0.744142    0.546443
H      1.848363    2.879950   -0.057658
