17

C      1.744964   -1.465442    0.406718
C      1.084230   -0.098158    0.213803
C      1.597890    0.548829   -1.040126
O      1.232598    0.129296   -2.170480
O      2.506504    1.596358   -0.958098
N     -0.374437   -0.234036    0.151949
C     -1.251195    0.895087    0.268949
O     -0.782806    2.050880    0.455339
C     -2.730404    0.700859    0.191708
H      2.847743   -1.350935    0.481564
H      1.508943   -2.139922   -0.444627
H      1.377195   -1.932373    1.345144
H      1.352548    0.533540    1.089435
H     -0.800866   -1.179830    0.019303
H     -2.985095    0.138650   -0.730886
H     -3.253129    1.680760    0.170019
H     -3.074683    0.126437    1.076691
