24

C      3.315541   -1.246433    0.769368
C      2.190787   -0.841311   -0.126242
O      1.701165   -1.680017   -0.930515
N      1.655155    0.486769   -0.046027
C      0.508893    0.912652   -0.856887
C     -0.772334    0.291376   -0.344333
C     -1.069025    0.277777    1.032058
C     -2.265209   -0.281407    1.491504
C     -3.179140   -0.823301    0.584549
C     -2.900289   -0.803772   -0.784231
C     -1.705325   -0.245824   -1.249012
C      0.389773    2.411540   -0.866219
O      0.287348    3.053926    0.212880
O      0.372773    3.097740   -2.074132
H      3.720027   -2.235427    0.465833
H      2.949866   -1.309779    1.815293
H      4.129519   -0.493953    0.711414
H      2.064825    1.141510    0.659200
H      0.690811    0.588610   -1.906187
H     -0.375146    0.699378    1.748422
H     -2.484755   -0.292229    2.551296
H     -4.105052   -1.254963    0.942049
H     -3.611696   -1.219185   -1.486251
H     -1.508512   -0.233678   -2.313829
