22

C     -1.987664    1.743987   -0.618658
C     -3.087315    0.863124   -0.537332
C     -2.901898   -0.470776   -0.134657
C     -1.605418   -0.889423    0.161708
C     -0.528295   -0.042380    0.058590
C     -0.690336    1.296914   -0.309418
C      0.585912   -0.771464    0.450396
C      0.107019   -2.030411    0.797547
N     -1.229212   -2.099639    0.608077
C      1.995994   -0.351832    0.544480
C      2.552996    0.501331   -0.322052
C      3.968393    0.895833   -0.238417
O      4.711025    0.467522    0.685089
O      4.494048    1.757716   -1.191857
H     -2.145286    2.774266   -0.910110
H     -4.081419    1.220367   -0.772550
H     -3.741993   -1.147757   -0.048426
H      0.140364    1.987361   -0.335386
H      0.706803   -2.854033    1.163037
H     -1.843840   -2.924031    0.790138
H      2.607590   -0.823466    1.304290
H      1.972532    0.896790   -1.144489
