35

C     -2.237404    2.265878   -0.892166
C     -2.869646    1.461462    0.243129
C     -3.331731    0.059464   -0.194213
C     -2.210786   -0.859813   -0.712427
C     -1.160568   -1.184492    0.359210
C     -0.136149   -2.200993   -0.166986
C      0.963818   -2.499171    0.860119
C      1.898988   -1.339318    1.011627
O      1.747723   -0.533781    1.970384
O      2.910931   -1.146592    0.063499
C      3.768339   -0.005250    0.039263
C      3.256252    1.045377   -0.951037
C      1.910892    1.635165   -0.536374
H     -1.253084    1.838918   -1.174315
H     -2.905668    2.278898   -1.779170
H     -2.073588    3.311568   -0.556783
H     -3.759866    2.018254    0.607842
H     -2.161080    1.394048    1.094807
H     -3.832887   -0.433444    0.667213
H     -4.096666    0.168415   -0.993885
H     -1.721357   -0.405900   -1.600094
H     -2.681496   -1.809062   -1.050364
H     -0.633555   -0.253592    0.650472
H     -1.663822   -1.602259    1.258639
H      0.324505   -1.826448   -1.108343
H     -0.662336   -3.151809   -0.402694
H      0.512758   -2.761816    1.842114
H      1.548451   -3.378773    0.515221
H      4.772593   -0.336812   -0.299280
H      3.892513    0.433383    1.053627
H      3.161255    0.588630   -1.959968
H      4.001436    1.867558   -1.014952
H      1.960059    2.028831    0.500944
H      1.644884    2.468491   -1.220176
H      1.116290    0.864985   -0.605888
