15

C      1.598943    0.939214   -0.503347
C      0.250426    0.849024   -0.152848
C     -0.249934   -0.332508    0.420570
C      0.643235   -1.386018    0.666756
N      1.952475   -1.273173    0.316305
C      2.442613   -0.145992   -0.263346
C     -1.662817   -0.470678    0.838880
N     -2.662076    0.005517    0.159362
O     -2.506312    0.674062   -1.033306
H      1.989012    1.846360   -0.946586
H     -0.385486    1.711317   -0.302121
H      0.296994   -2.302206    1.128370
H      3.489913   -0.088635   -0.528227
H     -1.879946   -1.053914    1.724579
H     -3.317038    1.027630   -1.525040
