12

C     -1.271355   -0.318596   -0.197147
C     -1.361296    1.148635   -0.256411
N     -1.433044    2.302705   -0.303258
N     -0.205719   -0.766356    0.714396
C      1.138598   -0.696235    0.118684
C      1.677654    0.672433    0.141851
N      2.102637    1.748665    0.160102
H     -2.241656   -0.708208    0.174966
H     -1.123357   -0.725799   -1.220506
H     -0.240219   -0.232460    1.616026
H      1.820324   -1.344719    0.707299
H      1.137435   -1.080065   -0.924224
