32

C     -3.944511   -0.790449    0.904069
C     -3.030429    0.018375   -0.028859
C     -3.309853   -0.400694   -1.484875
C     -3.319050    1.518637    0.170123
O     -1.676256   -0.288675    0.334757
C     -0.514716    0.230190   -0.260522
O     -0.592942    1.051924   -1.213932
C      0.811999   -0.194955    0.239896
C      1.993503    0.307384   -0.336079
C      3.256706   -0.097924    0.140978
C      3.327090   -1.014993    1.204880
C      2.154070   -1.514008    1.777044
C      0.906090   -1.109459    1.300950
O      4.555813   -1.442747    1.707782
O      4.452024    0.386692   -0.414376
C      4.525649    1.315561   -1.491161
H     -5.016008   -0.599936    0.677159
H     -3.746595   -1.878044    0.789332
H     -3.753135   -0.515891    1.963877
H     -4.388812   -0.283578   -1.724825
H     -2.736841    0.220783   -2.202634
H     -3.025801   -1.463775   -1.638710
H     -3.041573    1.828725    1.200338
H     -2.746044    2.140317   -0.547465
H     -4.398475    1.732815    0.013874
H      1.926266    1.012030   -1.153615
H      2.210618   -2.219962    2.596041
H      0.015642   -1.514237    1.765402
H      5.437193   -1.114386    1.331903
H      5.591380    1.519249   -1.721472
H      4.035206    2.270304   -1.206314
H      4.041794    0.890728   -2.395931
