17

C     -2.140606    0.162133   -0.084893
C     -0.796430   -0.568615    0.050412
C      0.367354    0.240187   -0.571305
C      1.643085   -0.563544   -0.568711
O      2.103856   -1.015474   -1.651189
O      2.303904   -0.829590    0.627497
N      0.554552    1.524238    0.112027
O     -0.538554   -0.905207    1.392567
H     -2.951978   -0.463808    0.343299
H     -2.369481    0.348981   -1.155712
H     -2.119909    1.133503    0.453359
H     -0.889339   -1.519779   -0.519085
H      0.097718    0.452845   -1.631192
H      3.156803   -1.375914    0.639721
H      1.241545    2.092773   -0.435202
H      0.972151    1.370348    1.058431
H     -0.634672   -0.083075    1.939976
