20

C      2.567740    0.144993   -0.506038
C      1.124715    0.477539   -0.221299
C      0.140149   -0.533587   -0.047297
C     -1.200192   -0.153804    0.234825
C     -1.525712    1.206689    0.353273
C     -0.556568    2.187794    0.165980
C      0.755825    1.828803   -0.126620
C     -2.297285   -1.172441    0.414591
C      0.505750   -1.968152   -0.156044
O      1.226143   -2.373391   -1.106100
O      0.057049   -2.882520    0.789223
H      2.673523   -0.188149   -1.559476
H      2.921577   -0.655983    0.176691
H      3.227341    1.025606   -0.351851
H     -2.539745    1.512770    0.580016
H     -0.824386    3.233417    0.248209
H      1.490856    2.611874   -0.267539
H     -3.302412   -0.704944    0.340264
H     -2.207066   -1.645899    1.414323
H     -2.237300   -1.950615   -0.375131
