23

C      0.705120   -1.129265    0.496242
C      2.060237   -1.295736    0.797110
C      3.013085   -0.425780    0.259716
C      2.605097    0.616344   -0.582397
C      1.250831    0.786176   -0.885490
C      0.285464   -0.086423   -0.351386
C     -1.181985    0.108535   -0.680795
C     -1.996110    0.478783    0.578471
N     -3.386363    0.788514    0.242364
O     -1.700367   -1.032502   -1.320310
O      4.359684   -0.604260    0.568454
H     -0.013414   -1.813026    0.929032
H      2.370105   -2.101667    1.450236
H      3.336118    1.295727   -1.002008
H      0.957899    1.600004   -1.537040
H     -1.281102    0.954175   -1.396340
H     -1.533524    1.367682    1.063201
H     -1.973447   -0.356545    1.312843
H     -3.895826    1.059583    1.114272
H     -3.425128    1.586693   -0.432385
H     -3.853582   -0.049859   -0.172652
H     -1.777120   -1.756710   -0.646217
H      5.074327    0.009557    0.195080
