37

C      6.180475    1.496396    0.675418
O      5.954760    0.091465    0.622406
C      4.697089   -0.505924    0.442810
C      4.621783   -1.904519    0.409986
C      3.386500   -2.537007    0.226988
C      2.221082   -1.782077    0.081744
C      2.273451   -0.375967    0.127299
C      3.518875    0.252787    0.295169
C      1.065456    0.471143   -0.033958
C     -0.182247    0.040478    0.201114
C     -1.358500    0.910767    0.041156
O     -1.230528    2.104501   -0.349005
O     -2.625104    0.390203    0.328335
C     -3.835975    1.134412    0.177991
C     -4.992632    0.389175    0.877618
C     -5.190358   -0.995851    0.318239
O     -4.579383   -1.968847    0.833948
O     -6.008524   -1.217792   -0.787515
O     -6.189290    1.116951    0.770001
C     -4.129859    1.386522   -1.281017
O     -4.699181    2.455403   -1.625753
O     -3.813957    0.440711   -2.253839
O      5.783448   -2.660970    0.556377
H      5.866230    1.970000   -0.278612
H      5.622180    1.941108    1.526159
H      7.263438    1.683983    0.824863
H      3.329457   -3.617556    0.189682
H      1.291312   -2.306223   -0.089414
H      3.562692    1.333804    0.318817
H      1.217826    1.506137   -0.318322
H     -0.362639   -0.968243    0.545165
H     -3.711008    2.115182    0.690435
H     -4.732210    0.282571    1.957215
H     -6.497762   -0.459315   -1.246885
H     -6.105662    1.900148    1.374724
H     -3.374284   -0.439617   -2.014297
H      5.763049   -3.673939    0.536082
