24

C     -2.370023   -0.721178    1.478545
C     -1.033347   -1.021525    1.201600
C     -0.457152   -0.627381   -0.017096
C     -1.234114    0.082093   -0.948674
C     -2.574755    0.383466   -0.668548
C     -3.139395   -0.021362    0.545313
O     -3.351736    1.084952   -1.587658
C      0.991801   -0.930333   -0.303024
C      1.937849    0.062544    0.404909
C      3.364404   -0.391089    0.245725
O      3.920168   -0.367526   -0.884654
O      4.070525   -0.859997    1.346405
N      1.776105    1.426843   -0.116607
H     -2.809379   -1.029257    2.418513
H     -0.446500   -1.559424    1.935956
H     -0.798158    0.403919   -1.886562
H     -4.173844    0.209154    0.766197
H     -2.972712    1.393178   -2.475475
H      1.178982   -0.916986   -1.399781
H      1.213074   -1.963613    0.045903
H      1.700183    0.066172    1.493083
H      0.826250    1.791692    0.123293
H      1.899533    1.444188   -1.155511
H      2.482241    2.061468    0.323153
