17

C     -1.311541   -0.978084   -0.252061
C     -0.254108    0.124187   -0.427449
C     -0.944635    1.495803   -0.467808
C      0.810734    0.073944    0.702330
C      1.559243   -1.233079    0.711711
O      1.515944   -1.980369    1.724340
O      2.304200   -1.621909   -0.395247
O      1.725668    1.136080    0.590234
H     -0.842935   -1.982804   -0.311597
H     -1.823542   -0.877335    0.729050
H     -2.071359   -0.914335   -1.060129
H      0.247774   -0.032871   -1.408376
H     -1.443395    1.711798    0.501522
H     -0.206204    2.297809   -0.678869
H     -1.706939    1.519536   -1.275744
H      0.288584    0.187304    1.678575
H      2.152509    1.074324   -0.304702
