17

C     -0.516668   -1.090850    1.229546
C     -0.418328   -0.490321   -0.180265
C     -1.442446    0.641955   -0.355799
C      1.030506   -0.046861   -0.519196
C      1.515544    1.068450    0.365610
O      2.143797    0.807354    1.425396
O      1.251611    2.392625    0.035540
O      1.114064    0.364778   -1.859458
H     -0.322222   -0.319860    2.004992
H      0.217695   -1.915728    1.348594
H     -1.532990   -1.507955    1.395104
H     -0.693884   -1.297714   -0.894962
H     -1.275345    1.449390    0.388015
H     -2.471332    0.246451   -0.217296
H     -1.375938    1.071498   -1.377600
H      1.712122   -0.917896   -0.371028
H      1.063813   -0.455316   -2.417193
