26

C     -2.150446   -1.560452   -0.092130
N     -1.640490   -0.591279    0.885487
C     -1.357126    0.748667    0.328673
C     -0.262266    0.752239   -0.768297
C      1.069375    0.270832   -0.246742
C      1.560416   -0.998396   -0.598694
C      2.787519   -1.443402   -0.097114
C      3.533311   -0.626922    0.757088
C      3.054080    0.637199    1.110184
C      1.827548    1.086251    0.611195
C     -2.625283    1.411745   -0.144153
O     -3.395814    1.953243    0.693247
O     -2.977432    1.390941   -1.491609
H     -3.049603   -1.171538   -0.612784
H     -2.450228   -2.486068    0.442176
H     -1.372254   -1.836276   -0.831897
H     -0.769020   -0.981040    1.314236
H     -0.977060    1.377922    1.164541
H     -0.580309    0.153401   -1.648132
H     -0.130136    1.792794   -1.139174
H      0.998625   -1.642344   -1.262607
H      3.160700   -2.421653   -0.371423
H      4.482826   -0.973238    1.144297
H      3.632885    1.269331    1.771137
H      1.467941    2.068100    0.893167
H     -3.837756    1.819943   -1.810672
