28

C     -1.399609   -0.530978    1.473625
N     -1.505696   -0.524495   -0.002355
C     -2.690652    0.244998   -0.430874
C     -2.226546    1.652710   -0.814186
C     -0.713874    1.634141   -0.681047
C     -0.370719    0.146594   -0.672162
C      1.003820   -0.244886   -0.129408
C      1.946987    0.691927    0.341542
N      3.164202    0.280025    0.791974
C      3.520031   -1.033631    0.789656
O      4.653745   -1.381603    1.215143
C      2.631349   -1.996072    0.310064
C      1.379406   -1.598362   -0.157037
H     -1.267485    0.496504    1.877053
H     -2.314654   -0.974164    1.924147
H     -0.549944   -1.162668    1.807435
H     -1.590005   -1.513605   -0.338090
H     -3.481746    0.293329    0.352034
H     -3.148100   -0.240465   -1.323206
H     -2.517850    1.881770   -1.862956
H     -2.671545    2.415955   -0.138706
H     -0.218597    2.166819   -1.522062
H     -0.446662    2.115639    0.283682
H     -0.367047   -0.173745   -1.741927
H      1.733667    1.750598    0.344663
H      3.840851    0.996023    1.141326
H      2.907858   -3.043190    0.294509
H      0.698816   -2.349166   -0.538266
