50

C     -4.423575   -4.216953    0.895264
C     -4.745522   -3.519165   -0.270833
C     -3.892997   -2.518573   -0.747202
C     -2.709878   -2.200040   -0.054637
C     -2.391501   -2.916182    1.114731
C     -3.247019   -3.917201    1.585725
C     -1.813697   -1.138859   -0.570006
O     -1.833370   -0.860988   -1.800579
N     -0.950593   -0.403750    0.315959
C     -0.069383    0.673386   -0.150957
C     -0.698598    2.046518    0.141539
C     -2.007104    2.216882   -0.586928
C     -3.221264    1.922411    0.055684
C     -4.429672    2.024655   -0.639479
C     -4.438242    2.417077   -1.981763
C     -3.229465    2.706431   -2.629474
C     -2.019336    2.602948   -1.937008
O     -5.649923    2.513934   -2.662285
C      1.271593    0.565611    0.526550
O      1.327336    0.419934    1.778476
N      2.477257    0.714457   -0.240393
C      3.790198    0.405750    0.258485
C      4.003415   -0.653384    1.156669
C      5.292500   -0.947042    1.610447
C      6.395341   -0.192933    1.172071
C      6.182118    0.844053    0.246545
C      4.892358    1.135027   -0.207732
C      7.757429   -0.517809    1.661778
O      7.995111   -1.660649    2.136060
O      8.792363    0.416293    1.629005
H     -5.083720   -4.992505    1.261707
H     -5.656734   -3.753284   -0.806241
H     -4.164713   -1.985333   -1.650068
H     -1.473355   -2.724396    1.653813
H     -2.993748   -4.465675    2.483934
H     -1.092272   -0.500702    1.346648
H      0.093351    0.581754   -1.247606
H      0.001994    2.850402   -0.176123
H     -0.854376    2.166145    1.236964
H     -3.230770    1.602111    1.090184
H     -5.359863    1.793410   -0.136263
H     -3.226328    3.005519   -3.669873
H     -1.091554    2.815312   -2.453841
H     -5.689322    2.794259   -3.635144
H      2.402792    1.152865   -1.186553
H      3.180237   -1.270925    1.490450
H      5.425775   -1.764751    2.307982
H      7.007600    1.417723   -0.151501
H      4.750351    1.935604   -0.923059
H      8.648778    1.380627    1.358875
