41

C     -2.273630   -1.607451   -1.497921
C     -2.977973   -0.292442   -1.922906
C     -3.708930    0.339331   -0.729614
C     -2.709767    0.578464    0.427412
C     -1.615067   -0.522849    0.488971
O     -2.082910   -1.730208   -0.093869
O     -0.435793   -0.064845   -0.160830
C      0.716588   -0.764519    0.283812
C      1.389200   -0.004294    1.441700
C      2.075981    1.284818    0.945048
C      2.912054    1.059597   -0.346706
O      2.212576    0.327977   -1.348152
C      1.686423   -0.915655   -0.901440
O      2.706634   -1.832039   -0.601093
C      4.328663    0.499424   -0.090219
O      5.163591    1.495871    0.439378
O      1.123684    2.306468    0.761877
O      2.321672   -0.846682    2.070740
O     -3.398027    0.675536    1.650342
O     -4.292952    1.553234   -1.125337
O     -3.853859   -0.512795   -3.001057
H     -2.884538   -2.476275   -1.822460
H     -1.299348   -1.703173   -2.023044
H     -2.197872    0.423474   -2.265937
H     -4.505531   -0.369549   -0.399746
H     -2.204009    1.555519    0.258680
H     -1.412657   -0.722316    1.567169
H      0.464569   -1.798286    0.626800
H      0.607606    0.274664    2.186140
H      2.754165    1.641816    1.749214
H      3.079588    2.069864   -0.782287
H      1.093433   -1.339289   -1.742894
H      3.196726   -1.995115   -1.448892
H      4.763543    0.171703   -1.058268
H      4.311507   -0.386537    0.580550
H      5.094502    1.438824    1.427784
H      0.663427    2.155734   -0.103527
H      2.518798   -0.449619    2.959299
H     -3.800201   -0.212918    1.838888
H     -4.946793    1.797898   -0.419412
H     -4.585073   -1.103357   -2.680374
