25

C     -3.715627    0.525219   -1.137511
C     -2.385273    0.837780   -0.458699
C     -1.445191   -0.372569   -0.498587
C     -0.110061   -0.055204    0.185797
C      0.839302   -1.260614    0.126239
C      2.111224   -1.067965    0.970744
C      3.131631   -0.103591    0.343016
N      2.746785    1.291137    0.534536
O      2.625144    1.755577    1.686783
O      2.733020    2.148144   -0.541084
H     -4.374182    1.418156   -1.093513
H     -3.551561    0.257058   -2.202995
H     -4.223972   -0.316773   -0.621065
H     -2.579639    1.126984    0.597207
H     -1.910606    1.698852   -0.977960
H     -1.929679   -1.230451    0.018049
H     -1.256948   -0.657733   -1.557365
H      0.355149    0.809954   -0.330083
H     -0.298474    0.218921    1.247161
H      1.112801   -1.475502   -0.930029
H      0.305670   -2.153525    0.520239
H      1.848535   -0.745249    2.001658
H      2.603459   -2.060653    1.063607
H      4.122535   -0.265423    0.819822
H      3.245959   -0.322530   -0.741047
