14

C     -1.166117    1.019861   -0.042954
C     -0.619181   -0.407300    0.043153
C      0.879458   -0.420306    0.397605
C      1.719094    0.151273   -0.704038
O      1.972175   -0.535356   -1.728734
O      2.194961    1.453254   -0.613365
O     -1.339429   -1.103666    1.026338
H     -1.007296    1.556543    0.916877
H     -0.668258    1.581186   -0.861487
H     -2.255566    0.990889   -0.257419
H     -0.772174   -0.897290   -0.947550
H      1.205037   -1.467571    0.579725
H      1.054378    0.150095    1.335814
H     -1.197083   -2.071611    0.856035
