18

C     -1.721238    0.902098    0.358407
C     -1.393907   -0.256827    0.936363
C     -0.251568   -1.092302    0.403847
C      0.873243   -0.213171   -0.243122
C      0.270797    0.907607   -1.062291
C     -0.909892    1.449792   -0.742535
C      1.759912    0.413288    0.813541
O      1.267225    0.870004    1.879772
O      3.123723    0.554563    0.583848
O      1.660805   -1.004595   -1.101060
O     -0.748626   -2.036267   -0.513181
H     -2.591889    1.447122    0.699590
H     -2.008114   -0.646679    1.738340
H      0.181599   -1.660665    1.255839
H      0.849142    1.344682   -1.867586
H     -1.275634    2.305425   -1.295427
H      2.044388   -1.745536   -0.560899
H     -1.129966   -1.538538   -1.283448
