44

C     -0.146571   -2.393955    1.326126
N     -0.593019   -1.493142    0.243191
C     -0.003365   -1.875764   -1.059708
C      1.520008   -1.691660   -1.101191
C      1.979679   -0.423460   -0.432547
C      3.315542   -0.023494   -0.592301
C      3.815429    1.104308    0.084522
C      2.968264    1.824157    0.934937
C      1.637939    1.423930    1.106697
C      1.133591    0.300080    0.432345
C     -0.332794   -0.065287    0.587015
C     -1.193927    0.919724   -0.249563
C     -2.673562    0.723589   -0.035055
C     -3.276838    1.149327    1.159685
C     -4.644823    0.950612    1.368822
C     -5.422716    0.323853    0.390009
C     -4.825776   -0.105096   -0.803201
C     -3.458113    0.092879   -1.015082
O     -6.784351    0.131592    0.612276
O      3.457472    2.942346    1.608440
O      5.143569    1.535867   -0.058746
C      6.112752    0.901699   -0.887054
H      0.928395   -2.247022    1.566031
H     -0.307932   -3.457693    1.044424
H     -0.735609   -2.204745    2.250459
H     -1.625389   -1.643833    0.165456
H     -0.462749   -1.280341   -1.877162
H     -0.244479   -2.937267   -1.292820
H      1.850571   -1.695709   -2.162764
H      2.007063   -2.554000   -0.597091
H      3.960968   -0.602932   -1.239289
H      0.991758    1.994969    1.762455
H     -0.608988    0.102862    1.654455
H     -0.945839    1.963315    0.044634
H     -0.941397    0.846176   -1.328292
H     -2.687071    1.633692    1.928153
H     -5.100641    1.282697    2.292917
H     -5.419721   -0.593387   -1.565249
H     -3.010367   -0.250963   -1.939222
H     -7.374730   -0.319383   -0.076897
H      2.870947    3.485907    2.230902
H      7.071353    1.454620   -0.811644
H      6.278014   -0.143423   -0.549989
H      5.777453    0.914356   -1.945666
