20

C     -0.025263    0.135814   -1.145050
C      1.159594    0.787702   -1.500470
C      2.283259    0.707571   -0.671553
C      2.217482   -0.027980    0.519563
C      1.033888   -0.680729    0.877316
C     -0.094083   -0.610446    0.043092
C     -1.375629   -1.288457    0.445031
C     -2.145921   -0.423021    1.400943
O     -1.966873   -0.565093    2.640247
C     -3.072045    0.615742    0.922362
O     -3.259378    0.790731   -0.310525
O     -3.749405    1.414488    1.835302
O      3.456875    1.362188   -1.038369
H     -0.887134    0.212527   -1.796042
H      1.203988    1.357592   -2.419874
H      3.081000   -0.092056    1.169317
H      0.995044   -1.239449    1.804343
H     -1.147645   -2.263951    0.927884
H     -1.995335   -1.517046   -0.449237
H      4.287579    1.323872   -0.459276
