17

C     -1.299557    0.908488    0.304323
C      0.198147    1.143796    0.360767
C      0.795689   -0.254463    0.331914
N     -0.141205   -1.090932   -0.422111
C     -1.473200   -0.533955   -0.168413
C      2.176793   -0.272709   -0.269281
O      3.156151   -0.673168    0.413270
O      2.382494    0.150157   -1.577540
H     -1.746281    1.036546    1.314950
H     -1.783721    1.620540   -0.399437
H      0.491380    1.691637    1.282956
H      0.509666    1.731300   -0.531731
H      0.852134   -0.630093    1.381332
H     -0.088946   -2.085650   -0.098907
H      0.056099   -1.045896   -1.450386
H     -1.991174   -1.126247    0.619822
H     -2.094467   -0.569349   -1.091528
