17

C     -1.495471   -0.176711   -0.914768
C     -0.847773   -0.256498    0.472407
C      0.636370    0.202839    0.492838
C      0.760476    1.675370    0.188509
O      0.958113    2.078702   -0.988656
O      0.606341    2.603936    1.210270
N      1.486128   -0.601936   -0.398234
O     -0.951756   -1.575940    0.942210
H     -1.025804   -0.897566   -1.615872
H     -2.573227   -0.432710   -0.833414
H     -1.418823    0.849008   -1.330996
H     -1.432442    0.414742    1.145514
H      1.007801    0.062099    1.533341
H      1.233624   -0.455792   -1.401901
H      2.487301   -0.329863   -0.263363
H      1.392890   -1.616717   -0.164264
H     -0.823749   -1.542964    1.926379
