27

C      0.902658   -0.611672   -1.080017
C      2.281194   -0.384394   -1.117705
C      2.996905   -0.134025    0.066981
C      2.302637   -0.114501    1.288704
C      0.924070   -0.341404    1.325691
C      0.212126   -0.596924    0.142181
C     -1.287330   -0.819220    0.176620
C     -2.049728    0.499256    0.480260
C     -1.779116    1.598544   -0.566092
O     -2.096963    1.161339   -1.861232
N     -3.494300    0.266139    0.578460
O     -1.596277   -1.775422    1.158848
N      4.416534    0.101119    0.032270
O      5.038522    0.085741   -1.050305
O      5.113286    0.346754    1.193356
H      0.373774   -0.794632   -2.007129
H      2.786876   -0.402270   -2.074593
H      2.824454    0.078175    2.217052
H      0.410509   -0.316649    2.278784
H     -1.634743   -1.202027   -0.812117
H     -1.700257    0.890783    1.462338
H     -2.358821    2.515035   -0.308394
H     -0.706554    1.884791   -0.541719
H     -3.069828    1.313438   -1.985490
H     -3.817521   -0.296594   -0.242163
H     -3.690214   -0.295488    1.438718
H     -1.301892   -2.655892    0.805778
