11

C     -1.002957   -0.477265   -0.351073
C     -0.552202    0.899979    0.119932
C      0.222130   -0.341157    0.539137
N      1.494649   -0.547932   -0.156662
H     -0.807601   -0.674359   -1.426922
H     -1.908804   -0.854979    0.168396
H     -1.190057    1.332666    0.919179
H     -0.090873    1.523648   -0.675180
H      0.121384   -0.693754    1.587662
H      1.485695   -0.124251   -1.113574
H      2.228635   -0.042596    0.389106
