27

C     -0.198238   -0.354101   -1.086436
C      0.910629   -1.335078   -0.664749
C      1.635376   -0.976358    0.648723
C      2.322206    0.398281    0.643463
C      3.377487    0.494546   -0.418750
O      3.144244    1.128757   -1.481183
O      4.606940   -0.136399   -0.253984
C     -1.335656   -0.258360   -0.059133
C     -2.493677    0.590881   -0.600258
C     -3.644335    0.690741    0.407081
O     -3.233817    1.351905    1.573767
H      0.229238    0.652949   -1.276361
H     -0.615750   -0.715711   -2.051713
H      1.655994   -1.402013   -1.486303
H      0.467872   -2.349031   -0.555015
H      2.401483   -1.757263    0.848201
H      0.919018   -1.019982    1.495918
H      1.573005    1.208535    0.519835
H      2.803469    0.557534    1.632059
H      4.817330   -0.661321    0.586449
H     -0.953082    0.208293    0.873336
H     -1.707631   -1.279333    0.178068
H     -2.129646    1.612982   -0.844456
H     -2.883012    0.130871   -1.534725
H     -3.997304   -0.327934    0.675087
H     -4.500678    1.230219   -0.057500
H     -3.171464    2.316391    1.346643
