19

C      2.780364   -0.890453    0.348904
C      1.940953    0.249541   -0.139813
O      2.512036    1.241656   -0.666998
C      0.460885    0.183512   -0.098839
C     -0.333308    1.316262    0.210947
C     -1.729535    1.221506    0.156594
C     -2.350862    0.013347   -0.167543
C     -1.572165   -1.114334   -0.445142
C     -0.178703   -1.030527   -0.411682
O     -3.741659   -0.056336   -0.206987
O      0.222714    2.535652    0.604266
H      3.768463   -0.517085    0.691863
H      2.282203   -1.398462    1.201592
H      2.935607   -1.618527   -0.474283
H     -2.335515    2.089246    0.386296
H     -2.045449   -2.054937   -0.696879
H      0.400006   -1.912417   -0.656481
H     -4.222459   -0.918117   -0.437392
H      1.206426    2.660473    0.801575
