29

C      4.718293    0.380276    0.881161
C      3.874637    0.404881   -0.351562
O      4.321776    0.937547   -1.403395
N      2.574014   -0.195676   -0.339947
C      1.724668   -0.199606   -1.532037
C      0.360632   -0.844787   -1.253214
C     -0.515742    0.033488   -0.348469
C     -1.882499   -0.623865   -0.101426
C     -2.768825    0.209075    0.849426
C     -3.146225    1.526310    0.222086
O     -2.765999    2.607402    0.743888
O     -3.911338    1.557278   -0.937809
N     -3.979072   -0.539156    1.208715
H      4.133762    0.767919    1.741539
H      5.622487    1.011813    0.748884
H      5.032801   -0.662711    1.093141
H      2.245507   -0.651667    0.541668
H      2.234432   -0.775724   -2.334246
H      1.580372    0.841973   -1.893760
H     -0.160322   -0.995412   -2.224089
H      0.511026   -1.843899   -0.788231
H     -0.006649    0.193453    0.626369
H     -0.661111    1.022568   -0.834796
H     -2.407060   -0.774356   -1.071052
H     -1.715311   -1.625836    0.351856
H     -2.192946    0.406783    1.782864
H     -4.575422    0.035535    1.848211
H     -3.716447   -1.418400    1.710890
H     -4.529439   -0.785207    0.353319
