34

C      4.332186    2.020639   -0.876000
C      3.276680    1.097153   -0.361785
O      3.135423   -0.041577   -0.884632
N      2.416353    1.518241    0.705558
C      1.345712    0.660892    1.227259
C      0.847380    1.167580    2.591410
C      1.925107    1.080775    3.628249
O      2.602424    2.099326    3.927025
O      2.206828   -0.135626    4.237052
C      0.198826    0.625126    0.252836
O     -0.184635    1.693140   -0.299069
N     -0.486081   -0.608843   -0.008906
C     -1.642889   -0.683445   -0.906205
C     -1.883569   -2.146767   -1.341134
C     -2.857023   -2.287460   -2.524282
C     -4.284908   -2.096280   -2.113554
O     -4.948544   -1.123677   -2.559669
O     -4.885222   -2.995652   -1.241266
C     -2.843975   -0.107038   -0.210687
O     -3.259135   -0.609457    0.867351
O     -3.494419    0.996490   -0.748183
H      4.993599    1.495637   -1.597645
H      4.947931    2.391477   -0.030156
H      3.852949    2.882637   -1.384864
H      2.543933    2.480911    1.093574
H      1.743678   -0.369724    1.364214
H     -0.011346    0.546261    2.928141
H      0.490784    2.218019    2.504924
H     -0.173491   -1.469770    0.495779
H     -1.422918   -0.084437   -1.817942
H     -0.908531   -2.571291   -1.667553
H     -2.227842   -2.761039   -0.479570
H     -2.586740   -1.571535   -3.331143
H     -2.758527   -3.310683   -2.945963
