33

C     -2.747412   -1.335528   -1.615305
C     -1.668403   -1.490751   -0.535793
C     -1.699427   -2.918339    0.030321
C     -1.870440   -0.422829    0.568135
C     -0.743497   -0.379239    1.630593
C      0.615248   -0.165876    1.012650
O      1.519793   -1.023463    1.205508
N      0.884576    0.995237    0.211008
C      2.177126    1.198930   -0.450485
C      2.060553    2.254081   -1.561577
O      1.121122    1.854201   -2.523071
C      3.206766    1.623468    0.556151
O      2.959678    2.560927    1.362220
O      4.448720    0.996874    0.581021
N     -0.998330    0.669054    2.621132
H     -3.759393   -1.493003   -1.183665
H     -2.701375   -0.319039   -2.061401
H     -2.586131   -2.072939   -2.430557
H     -0.684622   -1.330703   -1.028718
H     -2.630653   -3.090751    0.611419
H     -0.821901   -3.098983    0.684434
H     -1.651537   -3.660891   -0.794699
H     -2.838503   -0.612271    1.082695
H     -1.953429    0.577287    0.089314
H     -0.734526   -1.350160    2.172674
H      0.136559    1.716646    0.101066
H      2.501106    0.243365   -0.919928
H      1.733135    3.224345   -1.129304
H      3.052640    2.416056   -2.042855
H      1.552802    1.141911   -3.063462
H      5.158314    1.276564    1.247644
H     -1.877169    0.433773    3.137635
H     -1.161391    1.582045    2.137240
