30

C      3.541930    1.039511   -1.244684
C      3.145258    0.419146   -0.081617
N      4.159913   -0.331856    0.372978
C      5.156947   -0.143361   -0.511496
N      4.814960    0.690302   -1.517861
C      1.781899    0.481178    0.541783
C      0.811387   -0.511318   -0.121127
C      1.246801   -1.934128    0.108920
O      1.502476   -2.683667   -0.870113
O      1.369387   -2.430557    1.401475
N     -0.539674   -0.314448    0.411680
C     -1.410996    0.719418   -0.069726
O     -1.057620    1.456631   -1.029914
C     -2.769285    0.900476    0.537453
C     -3.765620   -0.092590   -0.070793
N     -5.094884    0.075532    0.515351
H      2.941714    1.695362   -1.861367
H      4.173215   -0.940911    1.221010
H      6.126919   -0.615855   -0.430701
H      1.859174    0.273686    1.631408
H      1.389805    1.514995    0.428541
H      0.797443   -0.323958   -1.219082
H     -0.861123   -0.894085    1.220712
H     -3.120397    1.940433    0.359460
H     -2.703951    0.744158    1.635874
H     -3.825824    0.067458   -1.170716
H     -3.413302   -1.132844    0.110524
H     -5.449665    1.041909    0.330075
H     -5.749803   -0.614287    0.081207
H     -5.057082   -0.096330    1.546433
