32

C      2.349111    1.620480   -0.536197
C      2.784033    0.473031    0.383795
C      1.581387   -0.212117    0.985169
O      1.448607   -0.227789    2.239111
N      0.597791   -0.838686    0.145719
C     -0.649521   -1.406487    0.665257
C     -1.857925   -0.866053   -0.125724
C     -1.965391    0.678816   -0.125775
C     -2.211470    1.241323    1.282356
C     -3.091602    1.123315   -1.067874
C     -0.595285   -2.903445    0.562665
O     -0.926363   -3.617709    1.545561
O     -0.212666   -3.511326   -0.627362
N      3.625817   -0.488180   -0.337766
H      1.783067    1.237879   -1.411745
H      1.707270    2.335565    0.021952
H      3.242146    2.168136   -0.905079
H      3.386575    0.917698    1.208780
H      0.777463   -0.905085   -0.881593
H     -0.782152   -1.142745    1.736328
H     -1.776308   -1.217405   -1.178961
H     -2.792375   -1.299677    0.295872
H     -1.018202    1.113201   -0.514505
H     -3.096719    0.758820    1.749319
H     -2.386664    2.337355    1.234148
H     -1.324111    1.080757    1.928433
H     -3.147680    2.232314   -1.105380
H     -4.070590    0.725674   -0.723366
H     -2.897877    0.756927   -2.098651
H      3.122765   -0.880297   -1.166473
H      3.898165   -1.270415    0.301384
H      4.498704   -0.013874   -0.665320
