36

C      5.689324   -0.524193   -0.387468
C      5.342475    0.385802    0.615014
C      4.005946    0.528020    1.001000
C      3.006437   -0.247383    0.388941
C      3.361933   -1.152378   -0.625424
C      4.699701   -1.291463   -1.008093
C      1.560893   -0.075733    0.779360
C      0.837718    0.901380   -0.163159
C     -0.635053    0.942243    0.167622
O     -1.035365    1.599481    1.167664
N     -1.569938    0.188166   -0.618754
C     -2.999792    0.143486   -0.297380
C     -3.798408   -0.408228   -1.492518
C     -5.275963   -0.312204   -1.260574
O     -5.882807    0.767336   -1.493387
O     -5.970295   -1.404381   -0.749893
C     -3.216795   -0.701660    0.927644
O     -2.718775   -1.857650    0.999233
O     -3.991066   -0.213996    1.975615
N      1.434912    2.238089   -0.081086
H      6.724120   -0.632158   -0.685756
H      6.109068    0.983248    1.091196
H      3.750141    1.242517    1.773711
H      2.603294   -1.747157   -1.119437
H      4.968762   -1.992080   -1.788056
H      1.055802   -1.066758    0.743693
H      1.488104    0.284798    1.829570
H      0.957368    0.534811   -1.207061
H     -1.208306   -0.369340   -1.426220
H     -3.351010    1.180613   -0.096013
H     -3.542950    0.174234   -2.404720
H     -3.521664   -1.468246   -1.683877
H     -6.966055   -1.349898   -0.572203
H     -4.155492   -0.773443    2.803887
H      1.320645    2.618276    0.887125
H      0.923089    2.875847   -0.733873
