23

C      2.479259   -0.151667    1.092525
C      1.993850    0.139852   -0.332496
C      0.626929    0.780119   -0.311984
O      0.489993    1.949451   -0.764461
N     -0.509991    0.074917    0.212398
C     -1.855290    0.657032    0.204731
C     -2.791975   -0.141893    1.114018
C     -2.397336    0.676114   -1.195067
O     -2.971097    1.706061   -1.637149
O     -2.300951   -0.454067   -1.998298
N      1.984636   -1.082757   -1.144054
H      2.478064    0.781794    1.695204
H      3.517074   -0.546340    1.064443
H      1.829925   -0.902606    1.590100
H      2.712993    0.858160   -0.788882
H     -0.371413   -0.884307    0.603477
H     -1.803254    1.695893    0.600980
H     -2.882308   -1.191794    0.760386
H     -2.395558   -0.147018    2.151700
H     -3.801391    0.322572    1.127276
H      1.374056   -1.814615   -0.713646
H      2.957589   -1.458354   -1.224609
H      1.636198   -0.866549   -2.106592
