15

C     -0.383536    1.422746   -0.319638
C     -0.244723   -0.106110   -0.371133
C      1.082112   -0.560389    0.261090
O      2.163826   -0.059026   -0.475202
N     -1.379369   -0.742982    0.308367
H      0.446619    1.906852   -0.876373
H     -1.339979    1.733991   -0.790741
H     -0.370196    1.781201    0.731959
H     -0.248612   -0.419279   -1.439894
H      1.126971   -1.672589    0.262907
H      1.142306   -0.202977    1.314079
H      2.982580   -0.375094   -0.011852
H     -2.275583   -0.449791   -0.144510
H     -1.301808   -1.783313    0.231735
H     -1.400611   -0.473239    1.319204
