30

C     -2.955789    1.437612    1.265324
C     -3.144314    1.520207   -0.117117
C     -2.432622    0.674218   -0.973488
C     -1.530028   -0.266294   -0.449562
C     -1.344378   -0.341024    0.941211
C     -2.055717    0.508330    1.793844
C     -0.728837   -1.148246   -1.374485
C      0.458310   -0.387006   -2.004617
C      1.407889    0.141742   -0.958550
O      1.597273    1.385630   -0.874738
N      2.088628   -0.751202   -0.062917
C      2.933488   -0.272029    1.027724
C      2.084644    0.180184    2.176281
O      1.633165   -0.666790    2.991120
O      1.755620    1.523261    2.334576
N      1.187523   -1.235661   -2.949246
H     -3.505392    2.094936    1.926588
H     -3.838984    2.242741   -0.525546
H     -2.580238    0.754218   -2.043396
H     -0.647435   -1.053407    1.363721
H     -1.907166    0.447530    2.864219
H     -0.365614   -2.047242   -0.830186
H     -1.395894   -1.517027   -2.184168
H      0.048263    0.479023   -2.572975
H      1.964534   -1.782501   -0.171871
H      3.588644    0.552721    0.674022
H      3.593788   -1.097875    1.370372
H      2.099178    2.228582    1.694254
H      0.553772   -1.462937   -3.749962
H      1.437691   -2.141693   -2.490170
