22

C      0.393947   -1.184025   -0.396920
C     -1.024146   -0.656996   -0.096715
C     -1.072641    0.858275   -0.387954
O     -0.124104    1.551692    0.406789
C      1.196727    1.175778    0.045392
C      1.441326   -0.324403    0.335302
O      2.745139   -0.702407   -0.031724
O      2.115632    1.957577    0.762156
C     -2.442824    1.399022   -0.100888
O     -3.315306    1.423858   -1.008680
O     -2.774462    1.825570    1.179703
O     -1.357055   -0.893328    1.249765
O      0.520143   -2.523136    0.006158
H      0.575975   -1.109108   -1.495602
H     -1.751679   -1.171685   -0.768947
H     -0.869965    1.033706   -1.471371
H      1.368811    1.380626   -1.036517
H      1.332794   -0.493048    1.429756
H      2.845765   -0.533621   -1.005136
H      1.878791    1.880438    1.723507
H     -1.686288   -1.828115    1.306482
H      0.003422   -3.066671   -0.644554
