21

C      1.002287    0.536135    0.394201
C     -0.088358   -0.478051    0.784382
C     -1.245201   -0.613924   -0.234679
C     -2.211653   -1.665201    0.243664
O     -2.956761   -1.444633    1.235346
O     -2.264402   -2.899931   -0.391032
N     -1.944268    0.661865   -0.444486
C      1.737656    0.157552   -0.897865
C      2.905204    1.066366   -1.119754
O      2.752482    2.156307   -1.731535
O      4.152812    0.733431   -0.607640
H      1.739077    0.572053    1.227194
H      0.568549    1.554646    0.302675
H      0.389562   -1.472801    0.927163
H     -0.504299   -0.172976    1.770053
H     -0.834337   -0.961462   -1.207621
H     -2.215909    1.091662    0.469976
H     -2.805325    0.507366   -1.018669
H     -1.331610    1.323927   -0.972102
H      2.101904   -0.890598   -0.834095
H      1.052589    0.238267   -1.768188
