22

C      0.865304   -0.518391   -1.146495
C     -0.207097    0.543370   -0.827594
C     -1.431887   -0.005741   -0.050953
C     -1.165252   -0.086455    1.429959
O     -0.819159    0.938733    2.075142
O     -1.346595   -1.288600    2.102497
N     -2.611264    0.835302   -0.291760
C      1.676591   -1.017919    0.062512
N      2.451900    0.051801    0.694036
H      1.572714   -0.089805   -1.889716
H      0.381323   -1.390702   -1.637073
H     -0.561419    0.928561   -1.808863
H      0.238965    1.417212   -0.307530
H     -1.660517   -1.030469   -0.422032
H     -2.420863    1.825256   -0.010594
H     -3.426480    0.472735    0.255109
H     -2.865848    0.809377   -1.306044
H      1.014029   -1.501323    0.808902
H      2.377104   -1.803785   -0.297555
H      3.004379    0.575550   -0.023044
H      1.820152    0.706399    1.207048
H      3.113919   -0.371107    1.384049
