29

C     -3.434662    0.391762   -0.444946
C     -2.291077    1.151479    0.233926
C     -0.871616    0.744889   -0.242745
C     -0.658643    1.137474   -1.717607
C     -0.531128   -0.759619    0.002969
C      0.896161   -1.066616   -0.397903
O      1.110320   -1.854066   -1.359823
N      1.999477   -0.467020    0.296730
C      3.381062   -0.731447   -0.100879
C      4.334343    0.025349    0.768614
O      4.757243   -0.485481    1.838821
O      4.713287    1.316671    0.424865
N     -0.746912   -1.150533    1.404897
H     -3.384938   -0.692454   -0.218115
H     -4.403959    0.775178   -0.062445
H     -3.415994    0.543913   -1.543474
H     -2.436835    2.238216    0.048519
H     -2.372073    1.018097    1.333434
H     -0.162186    1.359463    0.354626
H     -1.217126    0.457923   -2.395043
H     -0.992904    2.181553   -1.896808
H      0.419113    1.084616   -1.979916
H     -1.198343   -1.380225   -0.636994
H      1.805192    0.175481    1.098085
H      3.528076   -0.421780   -1.157848
H      3.589262   -1.820363   -0.020242
H     -1.769820   -1.204156    1.611214
H     -0.346385   -2.101315    1.580082
H     -0.298935   -0.466989    2.057415
