29

C     -3.328485    1.777342    0.280532
C     -2.811297    0.633522   -0.597838
C     -3.829088   -0.509998   -0.639947
N     -1.525431    0.143916   -0.090568
C     -0.629638   -0.636847   -0.895288
O     -0.910602   -0.893840   -2.097456
C      0.674049   -1.109079   -0.325477
C      1.722296    0.009742   -0.389838
C      3.125464   -0.463788    0.049018
C      4.133356    0.615677   -0.244146
O      4.998238    0.447242   -1.143792
O      4.103282    1.812508    0.461923
N      3.160900   -0.809316    1.476851
H     -3.502902    1.425213    1.320068
H     -2.584534    2.601985    0.301800
H     -4.280611    2.176611   -0.129751
H     -2.673034    1.033703   -1.626730
H     -3.474910   -1.316171   -1.315880
H     -4.804864   -0.142064   -1.022905
H     -3.976066   -0.935806    0.375830
H     -1.226453    0.393740    0.880048
H      0.507705   -1.421805    0.726684
H      1.028463   -1.994037   -0.898040
H      1.782545    0.373988   -1.440477
H      1.394735    0.862210    0.246089
H      3.398039   -1.366766   -0.544358
H      2.784538   -0.025524    2.058919
H      4.145154   -1.009700    1.770205
H      2.599152   -1.672656    1.652595
