24

C     -1.887783   -1.609096   -0.523803
C     -2.212690   -0.419876   -1.424403
C     -1.238108    0.686702   -1.017302
N     -0.161957    0.007830   -0.308330
C     -0.455010   -1.393757   -0.052382
C      1.086831    0.640410    0.028297
O      1.273417    1.849728   -0.280092
C      2.165524   -0.127803    0.753550
N      3.370412    0.675845    0.967378
C     -1.899795    1.698223   -0.122842
O     -2.236719    1.390476    1.051533
O     -2.170655    2.973463   -0.601908
H     -2.573125   -1.606654    0.352293
H     -1.995835   -2.571729   -1.069184
H     -3.279718   -0.118729   -1.329363
H     -2.021287   -0.704804   -2.482626
H     -0.837972    1.188618   -1.926216
H     -0.364376   -1.619065    1.032132
H      0.242517   -2.034165   -0.634420
H      2.429032   -1.029430    0.158962
H      1.769109   -0.462357    1.736849
H      3.147120    1.510771    1.556812
H      4.082917    0.094837    1.465436
H      3.768150    0.980561    0.049029
