26

C     -2.841347    0.508240   -0.375468
C     -1.360120    0.103310   -0.454079
C     -1.247778   -1.269032   -1.141892
C     -0.690621    0.087429    0.954714
C      0.766305   -0.309686    0.862648
O      1.154598   -1.365789    1.432418
N      1.701181    0.498112    0.130817
C      3.088731    0.092960   -0.075636
C      3.155750   -1.033483   -1.056421
O      2.951090   -0.818853   -2.280022
O      3.409210   -2.326582   -0.617103
N     -0.807315    1.388077    1.632428
H     -3.320024    0.425679   -1.374751
H     -3.389296   -0.144896    0.337171
H     -2.941969    1.565861   -0.054869
H     -0.842831    0.848487   -1.097817
H     -1.748251   -1.247158   -2.133546
H     -1.721637   -2.058079   -0.519313
H     -0.184414   -1.536898   -1.315565
H     -1.215977   -0.674163    1.576887
H      1.385561    1.404969   -0.280191
H      3.669882    0.952330   -0.474275
H      3.545570   -0.206431    0.892125
H     -0.522747    2.168229    0.996638
H     -1.791535    1.541173    1.949181
H     -0.202014    1.406195    2.485920
