20

C      0.183708    1.642693   -0.942978
N     -0.517725    0.694267   -0.070338
C     -1.950596    0.881364    0.193795
C     -2.759015    0.049430   -0.749552
O     -3.221827   -1.061407   -0.379497
O     -2.965745    0.481686   -2.053227
C      0.175183   -0.449132    0.480137
O     -0.467044   -1.301502    1.154490
C      1.655128   -0.652572    0.243412
N      2.186548   -1.787719    1.000332
H      0.984702    2.158227   -0.373341
H      0.626944    1.105102   -1.807189
H     -0.507368    2.414065   -1.344157
H     -2.187061    0.615360    1.247288
H     -2.237590    1.947682    0.068974
H      2.201610    0.267887    0.542728
H      1.826679   -0.824610   -0.841349
H      2.039243   -1.638300    2.025235
H      1.721438   -2.673977    0.696056
H      3.212790   -1.868544    0.816935
