17

C     -1.939552    1.036460   -0.217918
C     -1.387731   -0.194926   -0.935678
C     -0.597157   -1.113283    0.007880
C      0.658113   -0.463570    0.519798
C      1.703655   -0.233030   -0.281903
C      2.944740    0.392777    0.200755
O      3.071605    0.744763    1.403990
O      3.993880    0.600068   -0.684939
H     -1.110741    1.669173    0.164140
H     -2.543213    1.639700   -0.928239
H     -2.589580    0.730967    0.629410
H     -2.240870   -0.769630   -1.356580
H     -0.747927    0.126898   -1.785641
H     -0.331921   -2.050621   -0.527877
H     -1.239548   -1.395753    0.870026
H      0.707262   -0.206088    1.571178
H      1.648984   -0.513905   -1.326907
