20

C      0.150301    0.558570   -0.356122
C     -1.103314   -0.348646   -0.332336
C     -1.789675   -0.297185    1.008288
O     -2.303413    0.775691    1.423021
O     -1.848695   -1.436283    1.801300
N     -2.039077    0.043124   -1.393274
C      1.252950    0.111810    0.630885
C      1.806448   -1.240726    0.274608
O      1.812781   -2.165404    1.129429
O      2.325676   -1.477559   -0.993109
C      2.369952    1.116674    0.666742
O      2.973081    1.444217   -0.390217
O      2.755892    1.680699    1.876407
H      0.567081    0.572328   -1.387811
H     -0.154135    1.601820   -0.115106
H     -0.787796   -1.398706   -0.523820
H     -2.885441   -0.571523   -1.365856
H     -1.583107   -0.071792   -2.327673
H     -2.333932    1.040489   -1.277425
H      0.814422    0.062404    1.652070
