19

C     -0.940127   -1.133307    0.655449
C     -0.868324   -0.280123   -0.619647
C     -2.259566    0.267158   -0.962092
C      0.137821    0.880486   -0.472010
C      1.555146    0.384813   -0.356993
O      2.154737   -0.002482   -1.395567
C      2.249043    0.315911    0.939778
O      1.667670    0.675734    1.998548
O      3.557607   -0.154038    0.997934
H      0.039694   -1.614673    0.856601
H     -1.693055   -1.941259    0.534910
H     -1.222245   -0.508693    1.530162
H     -0.545477   -0.933230   -1.461116
H     -2.630669    0.930044   -0.150842
H     -2.222237    0.845939   -1.909640
H     -2.978498   -0.568621   -1.099892
H      0.078876    1.534933   -1.369307
H     -0.131288    1.511829    0.402737
H      4.050892   -0.210420    1.880988
