15

C      2.780243   -0.885809   -0.606774
C      1.774691   -0.221569   -0.638359
C      0.549513    0.587762   -0.677270
C     -0.375496    0.267428    0.513277
C     -1.506065    1.260237    0.563547
O     -2.371902    1.289746   -0.351165
O     -1.591284    2.162531    1.616462
N     -0.904559   -1.101215    0.429885
H      3.662741   -1.469161   -0.578779
H      0.845926    1.658484   -0.645010
H      0.023920    0.400958   -1.638342
H      0.210427    0.367889    1.455799
H     -0.123976   -1.793083    0.502377
H     -1.410671   -1.248938   -0.473971
H     -1.563508   -1.275258    1.223787
