21

C     -2.228262   -1.478189    0.164038
C     -1.379609   -0.235648    0.068793
C     -2.014573    1.017902    0.034777
C     -1.269336    2.193498   -0.052933
C      0.121983    2.142163   -0.108375
C      0.784974    0.907829   -0.076453
C      2.187042    0.862997   -0.132656
C      2.853632   -0.362430   -0.101313
C      2.130078   -1.551560   -0.013853
C      0.734289   -1.525542    0.042995
C      0.037743   -0.298133    0.012804
H     -2.050374   -2.124061   -0.721372
H     -1.974980   -2.036739    1.089575
H     -3.311946   -1.236176    0.197485
H     -3.094512    1.089293    0.076289
H     -1.774202    3.150691   -0.078073
H      0.680585    3.068292   -0.176286
H      2.767016    1.775859   -0.200818
H      3.934789   -0.390448   -0.144968
H      2.653078   -2.498995    0.010062
H      0.212585   -2.470605    0.110284
