20

C     -1.947667    0.837084    0.031861
C     -0.644525    1.405967    0.629237
N      0.040111    0.403746    1.454302
C      0.378241   -0.835154    0.716044
C     -0.512634   -1.050623   -0.528637
N     -1.883211   -0.608387   -0.253456
C      1.848615   -0.914126    0.367936
O      2.560047   -1.811327    0.894291
N      2.452656    0.012480   -0.536750
H     -2.180840    1.379649   -0.909147
H     -2.786615    1.033982    0.736069
H      0.023073    1.754938   -0.186465
H     -0.888049    2.292133    1.254483
H      0.897749    0.838959    1.869184
H      0.156260   -1.678547    1.407301
H     -0.120313   -0.498060   -1.410668
H     -0.522182   -2.129448   -0.797386
H     -2.239567   -1.134096    0.579942
H      1.896245    0.755922   -1.009699
H      3.472608   -0.055092   -0.749548
