28

C      3.596379   -1.459197    0.770937
C      3.026073   -0.371950   -0.141904
C      3.565618   -0.517843   -1.537457
O      3.334103   -1.559231   -2.207690
O      4.329301    0.499391   -2.095832
N      1.561564   -0.437384   -0.151599
C      0.762111    0.119636    0.902110
O      1.303767    0.758564    1.844893
C     -0.730655   -0.012842    0.862525
C     -1.338321    1.074688   -0.037598
C     -2.868910    0.961756   -0.224067
C     -3.246325   -0.304869   -0.950753
O     -3.561151   -1.346447   -0.315631
O     -3.198039   -0.341224   -2.338667
N     -3.592684    1.092258    1.048694
H      3.243301   -1.305537    1.812516
H      3.270647   -2.465583    0.430382
H      4.706787   -1.417323    0.769799
H      3.347238    0.620134    0.245709
H      1.074971   -0.954552   -0.919362
H     -0.989834   -1.022641    0.480854
H     -1.127194    0.078605    1.895996
H     -1.103015    2.072737    0.393756
H     -0.857072    1.030732   -1.040328
H     -3.174650    1.811475   -0.875723
H     -3.410100    0.277978    1.677990
H     -4.620423    1.145965    0.860844
H     -3.303485    1.972704    1.533550
