40

C     -5.247356   -0.238550   -0.639016
C     -3.878416    0.009895    0.009517
C     -4.050431    0.762449    1.339839
C     -3.081019   -1.314811    0.151681
C     -1.660350   -1.058689    0.605852
O     -1.338460   -1.224000    1.814874
N     -0.691210   -0.571990   -0.334181
C      0.660455   -0.177992    0.074457
C      1.569661   -0.027817   -1.160248
C      3.006775    0.213058   -0.770440
C      3.828886   -0.864244   -0.401663
C      5.151922   -0.639603   -0.009333
C      5.664022    0.664520    0.025358
C      4.845942    1.740940   -0.332676
C      3.522724    1.518852   -0.725839
O      6.980326    0.900703    0.415213
C      0.599533    1.107128    0.853254
O     -0.053366    2.089945    0.409045
O      1.293549    1.220994    2.053630
N     -3.772727   -2.272206    1.024059
H     -5.770007    0.726628   -0.811221
H     -5.883421   -0.875849    0.011806
H     -5.121997   -0.740850   -1.621879
H     -3.310251    0.677083   -0.677162
H     -3.064872    0.961488    1.809941
H     -4.683033    0.187269    2.047896
H     -4.539249    1.743169    1.157011
H     -3.016125   -1.773494   -0.860692
H     -0.981231   -0.457243   -1.332415
H      1.082698   -0.979423    0.721275
H      1.200714    0.799361   -1.806876
H      1.513502   -0.957614   -1.768233
H      3.443666   -1.876372   -0.415895
H      5.776580   -1.478388    0.270253
H      5.235105    2.750739   -0.303142
H      2.899776    2.364087   -0.991116
H      7.597831    0.142498    0.681101
H      1.275373    2.083692    2.584096
H     -3.266757   -3.186949    0.980706
H     -3.738760   -1.948414    2.017440
