41

C     -3.038258    0.553843   -2.260473
C     -2.367306    0.744145   -0.899112
C     -2.987511   -0.149564    0.205875
C     -4.405623    0.323276    0.572587
C     -2.104764   -0.242721    1.484155
C     -0.777268   -0.928630    1.218114
O     -0.739571   -2.189228    1.245551
N      0.417060   -0.189114    0.904903
C      1.724700   -0.845215    0.784329
C      2.704379    0.008247   -0.075000
C      4.091505   -0.662615   -0.157237
C      2.127727    0.230092   -1.498066
C      2.913350    1.259200   -2.313409
C      2.266339   -1.085145    2.171362
O      2.361247   -0.127906    2.984924
O      2.683240   -2.354796    2.562254
N     -1.951212    1.057268    2.149048
H     -3.039803   -0.518994   -2.547955
H     -2.475981    1.122594   -3.030832
H     -4.079465    0.936052   -2.245923
H     -1.296667    0.491215   -1.028774
H     -2.431463    1.817036   -0.617380
H     -3.082022   -1.183228   -0.197538
H     -5.090939    0.219085   -0.293391
H     -4.395522    1.385362    0.898014
H     -4.820428   -0.297437    1.395109
H     -2.647009   -0.900965    2.200414
H      0.385328    0.853267    0.874139
H      1.592521   -1.823108    0.269644
H      2.828915    0.999186    0.417033
H      4.522865   -0.809775    0.854332
H      4.808363   -0.023977   -0.711617
H      4.019234   -1.649793   -0.661854
H      1.085806    0.603930   -1.429862
H      2.097481   -0.732776   -2.053529
H      3.902801    0.856983   -2.612563
H      2.352101    1.500361   -3.240901
H      3.050620    2.195708   -1.732132
H      2.633697   -3.144322    1.929758
H     -1.321753    0.945222    2.977167
H     -1.516713    1.757241    1.508837
