34

C      3.388948   -1.438827   -0.399033
C      3.377255    0.087567   -0.210770
C      3.391032    0.433572    1.284816
C      2.191924    0.782724   -0.933174
C      2.307584    0.649853   -2.429253
O      3.026773    1.456172   -3.076193
O      1.667093   -0.383333   -3.104109
N      0.899948    0.256608   -0.472615
C      0.052398    0.958048    0.449896
O      0.356634    2.114923    0.848655
C     -1.226546    0.330828    0.916733
C     -2.317734    0.483178   -0.151165
C     -3.694753   -0.027026    0.329024
C     -4.756554    0.367234   -0.663141
O     -4.756173   -0.117633   -1.825997
O     -5.739045    1.280829   -0.302271
N     -3.699155   -1.483984    0.521635
H      3.407762   -1.702103   -1.476756
H      2.500868   -1.907570    0.074894
H      4.300147   -1.869634    0.068132
H      4.322395    0.485355   -0.644407
H      4.297936    0.009687    1.766791
H      3.411345    1.535246    1.425572
H      2.494183    0.021913    1.795127
H      2.249535    1.871945   -0.712515
H      0.613323   -0.705390   -0.764231
H     -1.552930    0.815105    1.863010
H     -1.036860   -0.742803    1.125415
H     -2.013784   -0.060579   -1.073279
H     -2.407777    1.562915   -0.408237
H     -3.936711    0.463055    1.299306
H     -4.669763   -1.811910    0.734629
H     -3.095062   -1.742124    1.334183
H     -3.354238   -1.973839   -0.336118
