27

C     -1.769843    3.595728    1.215001
O     -2.262653    2.296795    0.902362
C     -1.462425    1.212628    0.506289
C     -0.064904    1.325685    0.382433
C      0.712490    0.225367   -0.015666
C      0.078352   -0.996318   -0.290698
C     -1.317683   -1.124025   -0.171151
C     -2.081572   -0.018609    0.226885
O     -3.465439   -0.162306    0.340549
O     -1.982734   -2.331493   -0.438710
C     -1.340630   -3.533929   -0.850631
C      2.183008    0.347776   -0.145015
O      2.752121    1.447012    0.102635
O      2.942944   -0.757935   -0.542718
C      4.357269   -0.706655   -0.685948
H     -2.621805    4.248569    1.494778
H     -1.067396    3.541476    2.073388
H     -1.261784    4.034722    0.330490
H      0.420965    2.268109    0.594964
H      0.672889   -1.845799   -0.597416
H     -4.068179    0.600840    0.623747
H     -2.106335   -4.324427   -0.988949
H     -0.815643   -3.375201   -1.816250
H     -0.621271   -3.868412   -0.073541
H      4.634616    0.046894   -1.453221
H      4.828501   -0.445112    0.285134
H      4.727140   -1.701379   -1.008740
