31

C     -3.554518   -1.834011   -0.568167
C     -3.050032   -0.942610    0.351568
N     -3.992678   -0.027920    0.625783
C     -5.054732   -0.387355   -0.118991
N     -4.823580   -1.489543   -0.864943
C     -1.651914   -0.918001    0.896415
C     -0.683994   -0.196216   -0.058870
C     -1.042022    1.259174   -0.183345
O     -0.821508    2.052480    0.771391
O     -1.647173    1.724768   -1.346354
N      0.695654   -0.327044    0.420151
C      1.824012   -0.034687   -0.418088
O      1.645997    0.344219   -1.608510
C      3.225722   -0.132234    0.135201
C      3.787568    1.270645    0.405266
O      5.037071    1.186000    1.036648
N      4.103220   -0.869629   -0.778109
H     -3.030923   -2.674385   -1.004384
H     -3.917821    0.793492    1.266146
H     -5.991627    0.153748   -0.126999
H     -1.649996   -0.423727    1.892663
H     -1.309888   -1.965901    1.041769
H     -0.760064   -0.680336   -1.058551
H     -1.907306    2.698993   -1.442193
H      0.869408   -0.619810    1.408883
H      3.196403   -0.680845    1.102603
H      3.094989    1.818520    1.080328
H      3.864935    1.853613   -0.542083
H      5.710548    1.043861    0.321382
H      3.703081   -1.824658   -0.929359
H      4.131169   -0.388798   -1.707250
