23

C     -1.636317    0.663656   -0.985830
N     -0.606277    0.002083   -0.151381
C     -0.210054   -1.296246   -0.744586
C      1.243067   -1.558037   -0.348205
C      1.787563   -0.221005    0.134749
C      0.663049    0.777838   -0.142126
C      0.670471    1.966873    0.795991
O      0.326319    3.100691    0.370000
O      1.008345    1.819265    2.136792
C     -1.155076   -0.224013    1.212695
H     -1.268430    0.845838   -2.020202
H     -1.925801    1.645635   -0.551111
H     -2.549672    0.031793   -1.057468
H     -0.257586   -1.259452   -1.858246
H     -0.866914   -2.135997   -0.421217
H      1.826564   -1.933887   -1.217213
H      1.288165   -2.309971    0.470091
H      2.018722   -0.291176    1.219937
H      2.714960    0.057821   -0.412443
H      0.861159    1.176706   -1.166650
H     -2.036466   -0.902831    1.179209
H     -0.396655   -0.683469    1.883918
H     -1.499135    0.727885    1.673294
