24

C      1.843556   -1.049769   -0.390958
C      0.668089   -0.420915   -1.171688
C      0.333099    1.039368   -0.766318
C     -0.456190    1.081520    0.549637
C     -1.668892    0.143679    0.450929
C     -1.214455   -1.268914    0.034931
O     -0.481585   -1.263616   -1.184067
O     -0.479871   -1.900242    1.054590
O     -2.338648    0.081649    1.684129
O     -0.858362    2.396645    0.847081
O      1.499644    1.811105   -0.639013
O      3.060893   -0.528099   -0.849839
H      1.837980   -2.150823   -0.554359
H      1.749738   -0.854089    0.698322
H      1.005964   -0.369135   -2.230529
H     -0.310205    1.476386   -1.567277
H      0.197097    0.736995    1.380272
H     -2.365432    0.518522   -0.336937
H     -2.137416   -1.864006   -0.157413
H     -1.132335   -2.229964    1.726316
H     -2.894450    0.901459    1.752187
H     -1.459583    2.703821    0.118684
H      1.830504    1.982703   -1.559323
H      3.770860   -0.974280   -0.318841
