25

C     -0.243234   -1.414951   -0.274729
C      1.151636   -0.841660   -0.177348
C      2.241540   -1.725702   -0.245174
C      3.550479   -1.247075   -0.162878
C      3.786216    0.119168   -0.012485
C      2.713908    1.010987    0.056133
C      1.389418    0.541182   -0.025408
C      0.254785    1.481914    0.047903
O      0.467465    2.718937    0.179533
C     -1.128775    0.974817   -0.031834
C     -2.220224    1.860649    0.043537
C     -3.528711    1.378806   -0.031179
C     -3.762792    0.012278   -0.181560
C     -2.688946   -0.876669   -0.257750
C     -1.366473   -0.408040   -0.183768
H     -0.333365   -1.952694   -1.243553
H     -0.373433   -2.158969    0.541065
H      2.075000   -2.789659   -0.362538
H      4.383007   -1.936718   -0.216077
H      4.801715    0.488391    0.051059
H      2.921770    2.067220    0.173136
H     -2.063403    2.925669    0.160430
H     -4.362524    2.066482    0.027623
H     -4.777768   -0.359216   -0.239503
H     -2.887291   -1.935150   -0.375197
