39

C     -1.896400   -1.207970   -2.722351
C     -1.842703    0.267313   -2.319019
C     -1.306299    0.498025   -0.891832
C     -2.258020   -0.048096    0.147863
O     -2.182993   -1.256028    0.505069
N     -3.288607    0.792317    0.684638
C     -4.263255    0.281891    1.647798
C     -5.215573    1.360726    2.056999
O     -6.190762    1.655260    1.314956
O     -4.996491    2.070271    3.233870
N      0.041562   -0.065291   -0.737014
C      1.205718    0.578451   -1.275502
O      1.110325    1.701317   -1.841172
C      2.554105   -0.059101   -1.125814
C      3.124694    0.218214    0.271118
C      4.568045   -0.308523    0.430493
C      5.147970    0.151876    1.740747
O      6.106827    0.968509    1.746863
O      4.633630   -0.299960    2.954335
N      4.637912   -1.770696    0.355878
H     -2.601241   -1.767744   -2.073076
H     -2.252923   -1.289068   -3.770948
H     -0.888160   -1.669615   -2.660798
H     -1.195215    0.806744   -3.043209
H     -2.862592    0.702379   -2.404713
H     -1.242495    1.596591   -0.728981
H     -3.346525    1.785890    0.361591
H     -4.831200   -0.558279    1.192085
H     -3.732051   -0.098392    2.546783
H     -5.623055    2.814789    3.515674
H      0.170321   -0.986193   -0.259297
H      2.451947   -1.152702   -1.289521
H      3.241479    0.343630   -1.901587
H      3.128219    1.319006    0.438828
H      2.463088   -0.239412    1.039285
H      5.191191    0.117976   -0.389143
H      3.858644   -0.950471    2.993508
H      3.850454   -2.196799    0.896806
H      4.530431   -2.066701   -0.641210
