25

C      3.665793   -0.013787    0.240947
C      3.516343    1.371638    0.305841
C      2.242425    1.939139    0.270049
C      1.109472    1.122267    0.177982
C      1.243686   -0.287244    0.133518
C      2.542607   -0.841237    0.149971
C      0.075569   -1.086214    0.041298
C     -1.192208   -0.452688   -0.011079
C     -2.402036   -1.179311   -0.063151
C     -3.629249   -0.511475   -0.112535
C     -3.673181    0.882750   -0.100115
C     -2.489910    1.618201   -0.028082
C     -1.254483    0.962115    0.023014
N     -0.117917    1.694928    0.118653
N      0.175292   -2.519622    0.001431
H      4.656785   -0.449126    0.255353
H      4.389815    2.007128    0.374688
H      2.136909    3.016492    0.308329
H      2.710715   -1.905654    0.077739
H     -2.420971   -2.259099   -0.050558
H     -4.550523   -1.078274   -0.154814
H     -4.626440    1.394095   -0.137063
H     -2.534624    2.700242   -0.006299
H     -0.470135   -3.094343   -0.582525
H      0.896266   -3.030922    0.555193
