9

C      0.912365    0.132507   -0.113707
C     -0.484139   -0.454797    0.049740
O     -1.453000    0.467264   -0.368947
H      1.022891    1.036694    0.521656
H      1.671841   -0.617075    0.193357
H      1.086834    0.408345   -1.175317
H     -0.652957   -0.744520    1.111725
H     -0.568423   -1.369569   -0.574100
H     -1.535412    1.141151    0.355594
