41

C      3.264282    1.627068    0.356304
C      4.460021    1.950585    1.004695
C      5.568913    1.099660    0.902044
C      5.474244   -0.075841    0.150045
C      4.279584   -0.401562   -0.499383
C      3.168295    0.452674   -0.408018
C      1.869291    0.090116   -1.080774
C      0.910833   -0.614368   -0.105792
C     -0.427727   -0.835890   -0.767951
O     -0.575650   -1.787740   -1.582947
N     -1.511052    0.070515   -0.515380
C     -2.813511   -0.065956   -1.175737
C     -3.918700    0.611686   -0.349312
C     -4.076237   -0.051284    0.986803
C     -3.507498    0.350583    2.174509
N     -3.821992   -0.539509    3.136764
C     -4.571749   -1.467202    2.502861
N     -4.737719   -1.199971    1.194076
C     -2.754480    0.544283   -2.549676
O     -2.179527    1.651444   -2.725606
O     -3.370662   -0.081751   -3.629588
N      1.485278   -1.879568    0.362566
O      6.765391    1.411410    1.543675
H      2.412755    2.289709    0.450680
H      4.522770    2.860174    1.588344
H      6.326372   -0.738952    0.071341
H      4.220171   -1.319541   -1.070938
H      1.389869    1.017619   -1.466060
H      2.062518   -0.561919   -1.961550
H      0.763013    0.044421    0.778941
H     -1.330533    0.909368    0.082198
H     -3.066650   -1.145841   -1.269253
H     -3.687325    1.690434   -0.207037
H     -4.886291    0.541861   -0.892880
H     -2.893872    1.227970    2.330484
H     -4.986887   -2.337200    2.994174
H     -5.258239   -1.771730    0.492337
H     -3.861839   -0.960627   -3.518639
H      1.617568   -2.529700   -0.446613
H      0.811398   -2.330301    1.023968
H      6.865572    2.254871    2.096327
