25

C      2.096834   -0.366448    0.008852
C      1.964104    0.660734    1.144766
C      2.054541    2.068082    0.640284
O      3.173515    2.565182    0.346742
O      0.899356    2.818833    0.461501
C      0.934657   -0.304564   -1.002509
C      1.146706   -1.307934   -2.098392
O      1.018473   -2.540189   -1.869678
O      1.515757   -0.881458   -3.367972
N     -0.344623   -0.567089   -0.336697
C     -1.557391    0.111404   -0.692858
O     -1.559801    0.983011   -1.603920
C     -2.825226   -0.177660    0.055075
N     -2.847998    0.544998    1.325482
H      2.139631   -1.382432    0.460032
H      3.060748   -0.198803   -0.521580
H      2.781641    0.491437    1.878379
H      1.003487    0.517429    1.684531
H      0.925558    0.708945   -1.459591
H     -0.396536   -1.343333    0.362146
H     -2.901842   -1.270817    0.244281
H     -3.701916    0.122316   -0.560891
H     -3.741450    0.331363    1.824756
H     -2.044658    0.244426    1.924584
H     -2.793564    1.575392    1.152676
