13

C     -1.524075   -0.522992    0.109633
C     -0.171036   -0.131445   -0.493543
C      0.906849   -0.012022    0.597766
C      2.218477    0.283901    0.008077
N      3.252351    0.517243   -0.456536
O     -0.289300    1.066097   -1.221975
H     -1.859404    0.238237    0.846260
H     -1.446785   -1.507587    0.618317
H     -2.285519   -0.601846   -0.695052
H      0.127691   -0.936887   -1.200443
H      0.983263   -0.968163    1.158343
H      0.644024    0.795377    1.314360
H     -0.556537    1.780087   -0.585207
