22

C     -0.251756    2.609853    0.265199
N     -0.256695    1.150709    0.091193
C      0.918281    0.472153   -0.015612
C      0.970163   -0.874581   -0.145594
C     -0.192260   -1.623307   -0.174789
O     -0.135037   -2.879754   -0.275694
N     -1.396030   -0.961756   -0.082422
C     -1.425530    0.415335    0.079875
O     -2.534589    1.002905    0.225381
C     -2.653588   -1.727565   -0.074277
N      2.249941   -1.280332   -0.205198
C      2.948453   -0.123954   -0.103649
O      4.206775   -0.076542   -0.114178
N      2.166599    0.976184    0.015855
H     -1.262970    3.049521    0.138171
H      0.120547    2.863057    1.280332
H      0.405668    3.082607   -0.495269
H     -3.474139   -1.152236   -0.553880
H     -2.556951   -2.673334   -0.648998
H     -2.937383   -1.965592    0.972423
H      2.619223   -2.252922   -0.298122
H      2.471280    1.969551    0.119252
