19

C     -0.367923   -1.970608    0.143964
C     -0.167179   -0.486808   -0.063474
C      1.074695    0.105942    0.279462
C      1.290728    1.470852    0.005021
C      0.296536    2.239200   -0.593118
C     -0.937177    1.672458   -0.897901
C     -1.201866    0.329169   -0.608241
N     -2.522915   -0.153692   -0.908968
C     -3.150213   -1.016007   -0.213822
O     -3.762113   -1.853394    0.461439
N      2.097861   -0.695037    0.900049
C      3.242753   -0.256435    1.245223
O      4.355166    0.169461    1.580670
H     -0.938190   -2.408228   -0.701709
H     -0.908318   -2.145971    1.097419
H      0.593985   -2.522155    0.177542
H      2.233185    1.945004    0.246543
H      0.478121    3.284375   -0.808677
H     -1.707135    2.291875   -1.341422
