24

C     -2.408628   -0.740704    0.421516
C     -1.040937   -0.398681   -0.190432
C     -0.545414    0.996965    0.260253
C      0.846782    1.255361   -0.357040
C      1.805006    0.074068   -0.093551
C      1.111928   -1.237919   -0.513427
O     -0.110755   -1.401116    0.189615
O      1.956161   -2.318867   -0.224256
O      2.149809    0.020953    1.268846
O      1.391437    2.480853    0.069506
O     -0.481424    1.047032    1.664865
O     -3.377812    0.201937    0.047937
H     -2.336796   -0.761422    1.529701
H     -2.721136   -1.758250    0.092957
H     -1.177789   -0.399076   -1.298047
H     -1.253156    1.769442   -0.125135
H      0.710696    1.331966   -1.459197
H      2.719945    0.222084   -0.714845
H      0.936505   -1.220666   -1.616913
H      1.514822   -3.126706   -0.595970
H      3.016985   -0.458362    1.330068
H      1.566212    2.422604    1.043861
H     -0.664506    1.985446    1.931941
H     -3.607931    0.013060   -0.899183
