15

C     -0.780322   -0.787992    0.028972
C     -1.715583    0.430541   -0.085975
O     -0.965283    1.436039   -0.741674
C      0.349018    1.058816   -0.894811
O      1.211569    1.796897   -1.438950
C      0.627516   -0.295742   -0.362626
N      1.521419   -0.229772    0.798055
H     -1.109037   -1.575055   -0.684703
H     -0.809686   -1.212129    1.056649
H     -2.006876    0.790241    0.924153
H     -2.625048    0.187205   -0.675522
H      1.068673   -0.940427   -1.155389
H      1.116237    0.380833    1.545680
H      1.667299   -1.192280    1.180263
H      2.450104    0.152826    0.505878
