31

C      3.324708   -1.929191    0.849962
C      2.645867   -0.786896    0.175057
O      3.192574   -0.234055   -0.817778
O      1.381474   -0.381072    0.617030
C      0.646985    0.699253    0.036122
C      1.232425    2.031247    0.548492
C      0.711008    3.204148   -0.226002
O     -0.099738    4.007155    0.306301
O      1.110187    3.401198   -1.541933
C     -0.851602    0.561079    0.432527
N     -1.641203   -0.441662   -0.350915
C     -1.828035    0.004071   -1.754050
C     -1.005283   -1.780350   -0.335557
C     -2.981249   -0.557706    0.276127
H      4.424052   -1.772491    0.853816
H      2.970759   -2.013107    1.898801
H      3.089342   -2.869589    0.309814
H      0.761304    0.668750   -1.066343
H      2.337728    2.020789    0.441693
H      1.007157    2.154112    1.630870
H     -1.346158    1.554964    0.346983
H     -0.883578    0.308929    1.518096
H     -2.538574   -0.662079   -2.293472
H     -0.879236   -0.021639   -2.328614
H     -2.233724    1.039483   -1.796024
H     -0.777528   -2.100901    0.705537
H     -0.062414   -1.789613   -0.923953
H     -1.672025   -2.545890   -0.792579
H     -3.504469    0.425160    0.287833
H     -2.902865   -0.916838    1.327140
H     -3.627891   -1.277262   -0.275379
