18

C      2.803930   -0.465091   -0.009045
O      1.698235    0.431588   -0.050280
C      0.349079    0.043566   -0.002969
C     -0.017001   -1.315965    0.083971
C     -1.360732   -1.689826    0.110603
C     -2.357239   -0.718958    0.050471
C     -2.014681    0.630946   -0.032547
C     -0.664183    1.033141   -0.054827
N     -0.340791    2.438077   -0.133218
O     -1.229829    3.276702   -0.389545
O      0.932546    2.892756    0.121266
H      2.767149   -1.157345   -0.876565
H      3.745527    0.118840   -0.061347
H      2.794950   -1.039390    0.941357
H      0.731488   -2.094998    0.127380
H     -1.629795   -2.736290    0.175926
H     -3.398980   -1.012368    0.070324
H     -2.809673    1.364615   -0.070955
