50

C     -0.920948    0.278290   -1.000800
C     -1.233737   -1.227733   -0.981234
C     -2.746004   -1.520868   -0.851372
C     -3.157749   -2.031709    0.541057
C     -3.154406   -0.956755    1.642866
C     -4.332676    0.038082    1.540520
C     -3.898872    1.420531    1.024904
C     -5.049618    2.435399    1.046907
C     -6.104312    2.100592    0.036938
O     -5.911996    2.343040   -1.183628
O     -7.284841    1.489198    0.439088
C      0.556036    0.571631   -1.309047
C      1.484113    0.221793   -0.136092
C      2.929515    0.635651   -0.436951
C      3.857224    0.295801    0.739416
C      5.330284    0.646407    0.440693
C      6.193685   -0.575570    0.084785
C      5.800079   -1.218588   -1.249154
O      6.714014   -2.225857   -1.587915
H     -1.190374    0.743530   -0.031366
H     -1.536053    0.761951   -1.790984
H     -0.670748   -1.723229   -0.162615
H     -0.873622   -1.670019   -1.936375
H     -2.996160   -2.327094   -1.575683
H     -3.366900   -0.650975   -1.149009
H     -4.172967   -2.480811    0.474140
H     -2.475383   -2.856925    0.841365
H     -3.248561   -1.491702    2.613462
H     -2.174206   -0.438471    1.682751
H     -5.137987   -0.371004    0.892872
H     -4.769105    0.168315    2.555473
H     -3.082957    1.809501    1.672647
H     -3.504625    1.342933   -0.008418
H     -5.500367    2.480011    2.061892
H     -4.644192    3.444599    0.817970
H      0.870102    0.017276   -2.220443
H      0.650703    1.657940   -1.527838
H      1.457475   -0.872929    0.048935
H      1.135441    0.745917    0.780898
H      3.273005    0.115903   -1.355892
H      2.966831    1.731620   -0.623491
H      3.525098    0.884089    1.623326
H      3.756114   -0.779053    1.007603
H      5.409549    1.411975   -0.362394
H      5.768968    1.104790    1.353986
H      7.252535   -0.242246    0.020784
H      6.130404   -1.332740    0.896627
H      4.796301   -1.682484   -1.156368
H      5.757628   -0.450327   -2.054897
H      7.524263   -1.769673   -1.936095
