20

C     -1.300309    0.953321   -0.376712
C     -0.057570    0.347694   -0.996835
C      0.295694   -0.819995   -0.063747
C      1.707073   -0.523424    0.490658
C      2.050751    0.764001   -0.156917
O      3.131627    1.382463    0.026356
O      1.052716    1.231958   -0.981096
O      2.628464   -1.530119    0.150725
O     -0.645169   -0.880481    0.987702
C     -1.771247   -0.135489    0.581749
O     -2.687552   -0.979571   -0.064855
O     -1.026918    2.155728    0.306119
H     -2.066016    1.157680   -1.157120
H     -0.251689   -0.010251   -2.032093
H      0.275600   -1.781126   -0.625098
H      1.691225   -0.392657    1.594312
H      2.656978   -1.597945   -0.840498
H     -2.256615    0.322500    1.473698
H     -3.014156   -1.615998    0.623283
H     -0.412887    1.951711    1.060371
