25

C      3.618194   -0.595850    0.488805
N      2.322556    0.059090    0.293610
C      1.517817   -0.664819   -0.699898
C      0.191669    0.011119   -0.893871
C     -0.118778    0.967614   -1.855695
N     -1.384182    1.414479   -1.685241
C     -1.869166    0.758674   -0.616390
C     -3.131275    0.897819   -0.040422
C     -3.424131    0.122512    1.096648
C     -2.458700   -0.761095    1.628733
C     -1.192155   -0.879189    1.027715
C     -0.933683   -0.102224   -0.101805
H      4.194250   -0.616411   -0.462394
H      3.479791   -1.635200    0.859859
H      4.211492   -0.034141    1.242215
H      2.487652    1.040084   -0.033744
H      1.816930    0.081389    1.210402
H      2.051465   -0.698139   -1.676250
H      1.343977   -1.712570   -0.367736
H      0.548698    1.324578   -2.629211
H     -1.875365    2.134805   -2.259986
H     -3.862100    1.582167   -0.451505
H     -4.394431    0.206228    1.568531
H     -2.694102   -1.349963    2.505647
H     -0.446422   -1.550957    1.432448
