49

C      3.052820    3.301722    1.065609
C      2.474843    2.421715    0.006434
O      1.973695    2.941529   -1.026937
N      2.459743    0.998615    0.191721
C      1.809163    0.070987   -0.740292
C      0.631155   -0.641877   -0.027311
C      0.402626   -2.022054   -0.649980
C      1.704340   -2.868964   -0.515041
O      2.916950   -2.117496   -0.515677
C      2.860277   -0.932692   -1.291598
O      2.617609   -1.241563   -2.642119
C      1.793565   -4.037697   -1.513716
O      0.694688   -4.898190   -1.373280
O      0.011780   -1.872860   -1.994670
O     -0.556172    0.124632   -0.166211
C     -0.772569    0.983668    0.944490
C     -1.417657    2.301817    0.471508
C     -2.862016    2.087351   -0.002842
C     -3.668855    1.250720    1.010491
C     -2.871395    0.030590    1.555154
O     -1.540415    0.338817    1.951763
C     -2.930993   -1.207633    0.694474
O     -3.184724   -1.141904   -0.536989
O     -2.691391   -2.448074    1.272271
O     -4.049585    2.080196    2.080132
O     -2.848981    1.464191   -1.261945
O     -1.354498    3.295423    1.467601
H      2.369750    3.321424    1.940268
H      4.041795    2.909057    1.381990
H      3.184205    4.336696    0.684349
H      2.908011    0.604251    1.050319
H      1.396232    0.635970   -1.605629
H      0.888959   -0.828956    1.045133
H     -0.408076   -2.528884   -0.075793
H      1.653589   -3.336099    0.493652
H      3.868701   -0.461209   -1.227233
H      2.877185   -0.443496   -3.172977
H      1.817130   -3.659839   -2.556088
H      2.740597   -4.600291   -1.347710
H      0.851094   -5.428028   -0.548236
H     -0.614381   -2.614368   -2.203628
H      0.188395    1.289909    1.416763
H     -0.825944    2.678948   -0.391622
H     -3.341188    3.089708   -0.109899
H     -4.594193    0.887458    0.502295
H     -3.397251   -0.272492    2.486549
H     -4.832613    1.653130    2.517180
H     -3.747466    1.600701   -1.661992
H     -1.678533    2.905441    2.319933
