38

C      0.614972    2.887168    0.516777
C      0.491032    1.546773    1.260835
C      0.292007    0.310035    0.323581
C     -0.938489    0.444724   -0.613859
C     -2.128731   -0.283841    0.049596
C     -1.524553   -1.162508    1.166432
C     -0.011066   -0.947123    1.160775
C      0.726220   -2.036046    0.461261
C      1.593892   -1.566660   -0.417987
C      1.586873   -0.069227   -0.479409
C      2.914239    0.510823    0.084245
C      2.828729    0.833474    1.544093
O      3.833049    0.682491    2.287830
O      1.646541    1.347189    2.073988
C      2.439179   -2.428270   -1.264346
O      3.195713   -1.917447   -2.131506
O      2.404558   -3.810316   -1.120118
C     -3.125735    0.738538    0.637850
C     -2.871682   -1.161163   -0.981090
H     -0.388321    3.278433    0.248787
H      1.094860    3.641466    1.175779
H      1.219535    2.788789   -0.407261
H     -0.379022    1.631657    1.945507
H     -0.716589   -0.036200   -1.592733
H     -1.182062    1.496143   -0.865030
H     -1.915501   -0.864226    2.164934
H     -1.777111   -2.240506    1.047528
H      0.376119   -0.882757    2.202255
H      0.594149   -3.088676    0.679139
H      1.507739    0.249138   -1.542722
H      3.763735   -0.183096   -0.097826
H      3.158464    1.450289   -0.454566
H     -3.962744    0.215321    1.148707
H     -3.552398    1.375335   -0.166973
H     -2.629395    1.401200    1.376368
H     -3.727787   -1.684472   -0.502959
H     -3.260716   -0.537231   -1.814571
H     -2.189699   -1.929219   -1.406818
