15

C      1.517366   -0.597802    1.046571
C      2.697375   -0.317560    0.506308
C      2.437942    0.376425   -0.748067
O      3.317142    0.800640   -1.542077
O      1.076203    0.510533   -0.956057
C      0.478703   -0.087462    0.146369
C     -0.838309   -0.182940    0.354460
C     -1.849637    0.349145   -0.585965
O     -1.493708    0.928272   -1.647782
C     -3.286804    0.212744   -0.300371
O     -3.683590   -0.359129    0.749332
O     -4.221706    0.718629   -1.195195
H      1.365159   -1.112691    1.986333
H      3.662620   -0.563812    0.928507
H     -1.178755   -0.674992    1.257634
