40

C      3.244300    1.985777    0.451776
C      3.125887    0.579771   -0.148894
C      2.744869   -0.471353    0.916290
C      2.505983   -1.890417    0.351603
C      1.064181   -2.140081   -0.123591
C      0.066152   -1.929088    0.990946
C     -1.218397   -1.572957    0.816308
C     -1.896504   -1.382262   -0.530625
C     -3.404264   -1.079648   -0.389832
C     -3.702606    0.414639   -0.177342
C     -2.441458    1.212833    0.168097
C     -1.349507    0.936527   -0.897879
O     -1.252214   -0.416052   -1.347134
C      0.036060    1.435584   -0.438538
C      1.072794    1.236124   -1.517089
O      0.822807    1.662273   -2.675865
O      2.289496    0.561862   -1.314739
O     -2.738692    2.585673    0.188367
H      3.497071    2.716747   -0.345151
H      2.297844    2.296405    0.938909
H      4.051837    2.005066    1.214387
H      4.144692    0.306204   -0.501387
H      3.601581   -0.540764    1.622785
H      1.896306   -0.133263    1.540106
H      2.741230   -2.632157    1.146642
H      3.208786   -2.087500   -0.486973
H      0.976737   -3.189867   -0.475365
H      0.859757   -1.491480   -0.991289
H      0.408611   -2.071928    2.012746
H     -1.819130   -1.449800    1.713723
H     -1.816407   -2.359213   -1.054807
H     -3.921109   -1.412386   -1.316974
H     -3.839077   -1.676266    0.442363
H     -4.149389    0.833303   -1.106764
H     -4.452089    0.533513    0.635266
H     -2.074665    0.906407    1.174376
H     -1.633939    1.536918   -1.791140
H      0.316460    0.903403    0.483379
H     -0.017857    2.519682   -0.201119
H     -3.246138    2.757775    1.024430
