37

C      2.983255    0.565699   -1.234952
C      2.090226    0.232921   -0.022010
C      1.245325    1.451314    0.383980
C     -0.112736    0.907825    0.832809
C     -1.213845    1.802907    0.384761
C     -1.789506    1.365894   -0.721732
C     -1.216185    0.048484   -1.160962
C     -0.337310   -0.404715    0.066787
C      1.076846   -0.883870   -0.375158
C     -1.126255   -1.415526    0.983356
C     -0.495362   -2.038038    2.176281
O     -0.616152   -2.729143    0.952607
C     -2.618575   -1.446988    0.845410
O     -3.369567   -1.649431    1.835895
O     -3.166955   -1.213164   -0.411903
C     -2.311332   -0.979118   -1.527360
C     -2.753760    2.175927   -1.491573
O     -3.073105    1.846221   -2.663435
O     -3.302466    3.326851   -0.937946
C      2.991073   -0.194459    1.158119
H      3.673669    1.402138   -0.992214
H      2.365294    0.866133   -2.108882
H      3.588118   -0.320278   -1.525376
H      1.715909    2.047418    1.197121
H      1.118649    2.134078   -0.488346
H     -0.131405    0.774272    1.937328
H     -1.414308    2.769050    0.830890
H     -0.591933    0.244240   -2.060744
H      1.085684   -1.117097   -1.462482
H      1.384468   -1.834335    0.104747
H      0.561401   -1.787884    2.389358
H     -1.163099   -2.477741    2.946040
H     -1.827049   -1.935039   -1.823116
H     -2.916428   -0.635534   -2.389871
H      2.387040   -0.382842    2.069472
H      3.727231    0.603647    1.395866
H      3.553148   -1.119818    0.907232
