20

C      1.348768   -0.304329    0.235462
C      0.289172   -1.280701    0.760042
C     -1.020366   -1.128007   -0.032642
C     -1.390243    0.318878   -0.281856
N     -0.521043    1.281107   -0.140972
C      0.830031    1.129288    0.407755
C      1.755927    2.109869   -0.245700
O      1.774048    2.232008   -1.499442
O      2.629818    2.861987    0.529222
C     -2.718695    0.635443   -0.832686
O     -3.033092    1.828087   -1.088709
O     -3.638498   -0.377780   -1.075372
O      0.754777   -2.605961    0.706432
H      1.555241   -0.513645   -0.838374
H      2.292840   -0.433204    0.809094
H      0.083496   -1.039235    1.826743
H     -1.838740   -1.632855    0.524861
H     -0.919181   -1.627930   -1.020421
H      0.786247    1.357266    1.495734
H      0.979492   -2.810286   -0.239172
