36

C      3.072909   -0.860963    0.187997
C      2.024619    0.011209   -0.536612
C      1.463463    1.070636    0.432796
C      0.159090    0.496875    0.988365
C     -0.885437    1.547933    1.147334
C     -1.732455    1.565503    0.129410
C     -1.374364    0.518722   -0.884482
C     -0.396482   -0.426919   -0.104050
C      0.810671   -0.845087   -0.979920
C     -1.112021   -1.632647    0.539537
C     -0.433464   -2.533843    1.267127
C     -2.584891   -1.751725    0.424723
O     -3.233414   -2.549310    1.153971
O     -3.272710   -0.951068   -0.480510
C     -2.576802   -0.228516   -1.484171
C     -2.735347    2.632891   -0.059138
O     -3.050048    3.386799    0.899844
O     -3.323850    2.837032   -1.300160
C      2.691736    0.685222   -1.752908
H      3.431034   -1.675899   -0.477422
H      3.949960   -0.247797    0.488306
H      2.644995   -1.315698    1.105073
H      1.260928    2.021145   -0.113116
H      2.168870    1.311521    1.258714
H      0.347229   -0.020539    1.954975
H     -0.878933    2.280839    1.944495
H     -0.844592    1.044191   -1.711025
H      0.578008   -0.704205   -2.058834
H      1.033147   -1.930305   -0.887910
H     -0.931134   -3.371324    1.739346
H      0.633820   -2.452099    1.409260
H     -3.276447    0.464345   -1.990854
H     -2.208516   -0.943216   -2.251855
H      3.529732    1.337597   -1.425225
H      3.091678   -0.082072   -2.450382
H      1.959018    1.310776   -2.307547
