41

C      4.099976    1.296803    0.093413
C      2.929488    0.523998   -0.010275
C      3.067566   -0.857882   -0.168488
C      4.305520   -1.450653   -0.219995
C      5.481704   -0.709171   -0.119623
C      5.374690    0.684403    0.039025
O      6.532353    1.451882    0.142012
N      4.199744   -2.781466   -0.371473
C      2.876076   -3.049252   -0.417879
C      2.134961   -1.876216   -0.295571
C      0.665314   -1.780727   -0.300889
O     -0.023997   -2.831554   -0.409421
O      0.042444   -0.531850   -0.198300
C     -1.370019   -0.345730   -0.104345
C     -1.814690   -0.492027    1.364963
C     -3.321094   -0.195237    1.482865
C     -3.655936    1.144497    0.810991
C     -3.067452    1.170673   -0.621172
O     -1.666481    0.957726   -0.571459
C     -3.313905    2.524013   -1.309267
O     -4.672628    2.704304   -1.606832
O     -5.053622    1.291017    0.769989
O     -3.696420   -0.136939    2.835354
O     -1.551643   -1.797494    1.810709
H      4.019015    2.369221    0.216313
H      1.961698    1.001677    0.034211
H      6.449399   -1.192701   -0.162105
H      6.491502    2.457785    0.257152
H      4.979517   -3.472795   -0.438965
H      2.468543   -4.045235   -0.534453
H     -1.879321   -1.104865   -0.744653
H     -1.242495    0.247457    1.975658
H     -3.892708   -1.001553    0.961641
H     -3.187428    1.962612    1.411913
H     -3.555528    0.384548   -1.244927
H     -2.713787    2.583014   -2.246262
H     -2.976152    3.351714   -0.649504
H     -4.871652    2.128412   -2.390682
H     -5.256443    2.239982    0.979519
H     -3.850384   -1.071172    3.133840
H     -1.445725   -1.751219    2.796658
