46

C      6.819849   -0.590884    0.866218
C      6.221008   -1.186158   -0.407506
C      5.692980   -0.117666   -1.381321
C      4.551473    0.754414   -0.827839
C      3.287406   -0.053201   -0.498378
C      2.124485    0.874403   -0.125633
C      0.866531    0.069288    0.222418
C     -0.300166    1.001337    0.582507
C     -1.541289    0.237455    1.070831
C     -2.260299   -0.510935   -0.064777
C     -3.533654   -1.219187    0.421507
C     -4.622477   -0.241746    0.800409
O     -4.765319    0.041533    1.981063
C     -5.514129    0.438028   -0.222597
C     -6.989903    0.062718    0.019932
O     -7.827748    0.718936   -0.893165
N     -5.105290    0.114463   -1.594119
H      7.570723    0.188511    0.616286
H      7.322184   -1.392727    1.447301
H      6.025091   -0.151442    1.504050
H      5.419275   -1.907295   -0.144045
H      7.016415   -1.762629   -0.927699
H      5.342966   -0.624156   -2.307152
H      6.534689    0.546720   -1.675392
H      4.892618    1.310702    0.070881
H      4.301650    1.511221   -1.603556
H      3.491619   -0.730677    0.358116
H      2.999634   -0.667530   -1.379819
H      1.902482    1.549532   -0.981509
H      2.417689    1.496606    0.748761
H      0.589762   -0.557263   -0.651907
H      1.086001   -0.599054    1.083998
H     -0.566378    1.631907   -0.294162
H      0.025144    1.682229    1.399626
H     -2.239252    0.979504    1.514551
H     -1.253558   -0.476072    1.873820
H     -2.509212    0.196266   -0.885096
H     -1.583493   -1.286458   -0.480500
H     -3.903067   -1.898977   -0.374581
H     -3.288645   -1.865479    1.293131
H     -5.401942    1.535740   -0.075445
H     -7.123349   -1.033995   -0.099946
H     -7.289454    0.324589    1.060707
H     -7.874533    1.667610   -0.604115
H     -5.439149   -0.844434   -1.846776
H     -5.569367    0.784253   -2.249812
