24

C      3.776718    1.236779    0.082623
O      2.453156    0.866504   -0.283654
C      1.951297   -0.425289   -0.092650
O      2.691261   -1.332301    0.379163
C      0.546157   -0.757763   -0.527788
C     -0.177916   -1.679402    0.451716
C     -1.640833   -1.278389    0.353247
C     -1.661173   -0.063273   -0.578817
N     -0.286648    0.438055   -0.671742
C     -2.641708    1.025288   -0.105827
O     -2.621413    2.118915   -0.982914
H      3.924034    1.090555    1.173683
H      3.936599    2.306938   -0.161645
H      4.512534    0.625036   -0.481121
H      0.609642   -1.261784   -1.518437
H      0.180467   -1.515517    1.493004
H     -0.031024   -2.746902    0.177037
H     -2.031773   -1.031060    1.365423
H     -2.249763   -2.105467   -0.073397
H     -1.977893   -0.399560   -1.592472
H     -0.109195    1.062011    0.152830
H     -2.358296    1.379316    0.908632
H     -3.671536    0.605361   -0.040498
H     -3.122695    1.841948   -1.793926
