40

C     -1.059633   -2.463097    1.647166
C     -1.433224   -1.090530    1.065729
C     -2.649335   -1.127548    0.137050
C     -2.600317    0.203581   -0.606891
C     -1.114941    0.589681   -0.701141
C     -0.327738   -0.305219    0.292181
C      0.749532   -1.157404   -0.433098
C      2.072570   -0.372119   -0.348422
C      1.946159    0.459489    0.939092
C      0.449677    0.673935    1.197872
C     -0.000432    2.027791    0.767495
C     -0.851075    1.989798   -0.245494
C     -1.408612    3.181625   -0.923789
O     -2.027533    3.037936   -2.010866
O     -1.279926    4.464854   -0.393523
C      3.280747   -1.329493   -0.268472
C      2.255881    0.548128   -1.576278
O     -2.615181   -2.216607   -0.756328
H     -1.883733   -2.827559    2.296655
H     -0.143517   -2.373593    2.268739
H     -0.896094   -3.220018    0.852194
H     -1.749997   -0.471643    1.937245
H     -3.586222   -1.196794    0.732785
H     -3.175419    0.959895   -0.026074
H     -3.058836    0.120083   -1.616533
H     -0.769359    0.474275   -1.751947
H      0.893750   -2.127906    0.076731
H      0.475728   -1.400488   -1.482666
H      2.511220    1.417077    0.880487
H      2.360162   -0.107153    1.803224
H      0.231451    0.540719    2.280568
H      0.372293    2.934424    1.222850
H     -0.844735    4.647004    0.500817
H      4.226035   -0.754138   -0.165734
H      3.195283   -2.009831    0.606386
H      3.341924   -1.951933   -1.187139
H      1.456402    1.310963   -1.643073
H      3.225682    1.087333   -1.514634
H      2.250078   -0.047883   -2.514065
H     -1.818714   -2.117632   -1.339099
