41

C     -1.712505   -1.411576    0.407515
C     -3.212286   -1.263008    0.730117
N     -3.812094   -0.186874   -0.069656
C     -3.163771    0.892471   -0.396285
C     -3.829805    1.996551   -1.097152
O     -5.030383    1.900291   -1.467260
N     -3.094234    3.197896   -1.336949
C     -1.729748    3.280244   -0.908403
O     -1.076450    4.341706   -1.083365
N     -1.098254    2.147692   -0.293487
C     -1.731506    1.032999   -0.058545
N     -1.049160   -0.103684    0.502022
C      0.285215    0.020821    1.104119
C      1.383281   -0.015462    0.019444
C      2.805977    0.083235    0.634414
C      3.903497    0.150675   -0.460596
C      5.306190    0.341010    0.149555
O      6.272523    0.427596   -0.863253
O      3.885042   -0.998081   -1.272167
O      2.887513    1.244906    1.425226
O      1.248651   -1.177863   -0.761037
C     -3.963425   -2.576364    0.481512
O     -5.314879   -2.444155    0.831361
H     -1.591365   -1.796619   -0.628640
H     -1.250387   -2.144061    1.104614
H     -3.305797   -0.995448    1.806116
H     -3.549118    4.010070   -1.811395
H      0.456773   -0.801300    1.832799
H      0.337959    0.970597    1.678993
H      1.236899    0.860346   -0.648694
H      2.993066   -0.823848    1.259666
H      3.696302    1.030088   -1.109462
H      5.544778   -0.493549    0.848921
H      5.336889    1.285550    0.732560
H      6.501361   -0.503166   -1.121772
H      4.079923   -1.778987   -0.690109
H      2.733381    0.973738    2.367898
H      1.373650   -1.958288   -0.159509
H     -3.496945   -3.403190    1.064818
H     -3.901329   -2.843660   -0.595270
H     -5.355429   -2.469301    1.823092
