47

C     -4.827767   -0.097696    2.424968
C     -4.910584   -0.536299    0.948392
C     -4.988344    0.688806   -0.012895
C     -3.672509    1.504989   -0.020628
C     -2.452337    0.610904   -0.094698
C     -2.536217   -0.753801    0.243178
O     -3.755613   -1.318221    0.637429
C     -1.401006   -1.567075    0.160360
C     -0.173256   -1.020714   -0.235789
C     -0.067247    0.348054   -0.548022
C     -1.217442    1.150248   -0.486590
C      1.209043    0.968651   -0.980721
C      2.416588    0.466003   -0.686097
C      3.669853    1.119237   -1.121461
O      3.629151    2.196640   -1.776508
C      4.979510    0.499552   -0.820639
C      6.075058    1.259471   -0.341792
C      7.315126    0.640033   -0.142335
C      7.477391   -0.726121   -0.385169
C      6.392295   -1.484342   -0.836567
C      5.153930   -0.876764   -1.054032
O      8.719416   -1.320017   -0.172199
O      5.962496    2.615827   -0.028368
O     -1.501472   -2.921971    0.472153
O     -3.606439    2.316623    1.123648
O     -5.248653    0.240172   -1.321212
C     -6.155349   -1.426109    0.777778
H     -5.648537    0.608730    2.673778
H     -4.906200   -0.979128    3.097103
H     -3.853483    0.383232    2.646218
H     -5.823738    1.351337    0.318805
H     -3.690092    2.160548   -0.923854
H      0.681365   -1.677734   -0.319322
H     -1.152888    2.202595   -0.738777
H      1.147650    1.901878   -1.528812
H      2.501569   -0.426662   -0.081855
H      8.153811    1.222171    0.219092
H      6.509540   -2.543300   -1.028741
H      4.336103   -1.479512   -1.429804
H      8.869267   -2.308421   -0.338087
H      5.082822    3.114687   -0.031348
H     -0.699286   -3.539156    0.422720
H     -2.946113    3.033924    0.935486
H     -5.640846    1.004905   -1.818723
H     -6.116736   -2.288967    1.477068
H     -7.081693   -0.845935    0.979271
H     -6.208135   -1.837701   -0.252401
