24

C      1.156169    0.138459   -1.305809
C      0.539536   -0.502374   -0.293530
C      1.124270   -0.484359    1.083450
C      2.264129    0.178967    1.343969
C      2.970699    0.900765    0.276388
O      4.037609    1.523293    0.522961
C      2.406616    0.877231   -1.077424
O      2.976914    1.477184   -2.026869
O      0.475178   -1.169520    2.111484
C     -0.758646   -1.237131   -0.556063
C     -2.016843   -0.347007   -0.426301
C     -2.034481    0.745928   -1.465083
O     -1.543823    1.879843   -1.218033
O     -2.549609    0.486081   -2.728745
N     -2.166866    0.199391    0.929468
H      0.734373    0.122656   -2.303992
H      2.674648    0.184291    2.346325
H      0.834057   -1.182338    3.059377
H     -0.735876   -1.685053   -1.574686
H     -0.850364   -2.096259    0.142542
H     -2.895595   -1.000511   -0.627955
H     -2.193075   -0.581245    1.624892
H     -1.380339    0.846383    1.166134
H     -3.068681    0.725326    0.997500
