50

C     -2.459822    2.200745   -1.844145
C     -2.910012    1.293241   -0.723039
C     -2.208737    0.170280   -0.403216
C     -2.690822   -0.836727    0.653519
C     -3.846650   -0.271610    1.532112
C     -4.849323    0.577820    0.743645
C     -4.115312    1.736395    0.075129
O     -5.524162   -0.184073   -0.222699
C     -1.518860   -1.196067    1.597947
C     -3.152373   -2.133550   -0.054739
C     -1.002453   -0.190891   -1.186113
C      0.164061    0.428879   -0.976333
C      1.415886    0.050441   -1.675633
C      2.580040    0.217243   -1.017491
C      3.903496   -0.167535   -1.563478
C      5.022438   -0.232013   -0.827344
C      5.079152   -0.072424    0.645246
C      6.034525    0.729861    1.155352
C      6.281915    0.989460    2.590320
O      5.521712    0.561104    3.497720
C      4.172764   -0.909092    1.515487
C      1.369087   -0.526079   -3.069900
H     -1.454343    2.614410   -1.623873
H     -3.151973    3.058694   -1.977213
H     -2.427443    1.635346   -2.798850
H     -4.386338   -1.093024    2.052501
H     -3.426688    0.376651    2.334790
H     -5.592839    1.008726    1.454548
H     -4.834523    2.276190   -0.577737
H     -3.772064    2.451780    0.853658
H     -6.155854   -0.771675    0.268324
H     -0.699143   -1.709850    1.051767
H     -1.099209   -0.278747    2.067671
H     -1.863555   -1.878175    2.407331
H     -2.294918   -2.648138   -0.539147
H     -3.598211   -2.845941    0.672817
H     -3.898623   -1.921233   -0.848104
H     -1.067163   -1.032014   -1.863328
H      0.212814    1.195362   -0.209699
H      2.549425    0.647602   -0.023233
H      4.005880   -0.359127   -2.621795
H      5.958551   -0.401891   -1.346698
H      6.696476    1.246149    0.468758
H      7.140558    1.586804    2.868781
H      4.777304   -1.537323    2.202759
H      3.553936   -1.599716    0.903770
H      3.493226   -0.257207    2.102077
H      1.633637   -1.602646   -3.041480
H      2.069990    0.015955   -3.735501
H      0.364537   -0.412369   -3.528374
