36

C      4.619853    0.585581   -0.353370
C      3.772433    0.810162    0.898324
C      2.791523   -0.342600    1.178388
C      1.754295   -0.600891    0.069951
C      0.785885    0.577682   -0.129044
C     -0.263728    0.316567   -1.226153
C     -1.272425   -0.831619   -0.944333
C     -2.169351   -1.036759   -2.177744
C     -2.129031   -0.662385    0.346468
C     -2.796816    0.724770    0.468049
C     -3.790935    0.748304    1.587719
O     -3.460328    1.196356    2.718222
O     -5.070258    0.239158    1.388239
O     -1.326886   -0.912186    1.474021
H      3.997023    0.671287   -1.267895
H      5.413715    1.360212   -0.405260
H      5.102447   -0.414382   -0.322961
H      4.457832    0.896256    1.769208
H      3.232531    1.776432    0.818339
H      2.256713   -0.129945    2.129762
H      3.375381   -1.275363    1.338414
H      1.179930   -1.500352    0.372536
H      2.262785   -0.844542   -0.886555
H      1.366349    1.467835   -0.449479
H      0.297194    0.843485    0.829908
H     -0.820242    1.260633   -1.411085
H      0.281345    0.090871   -2.169552
H     -0.700506   -1.778359   -0.839220
H     -2.743410   -0.117460   -2.416151
H     -1.548017   -1.297190   -3.061335
H     -2.880949   -1.873053   -2.009810
H     -2.936504   -1.433612    0.307159
H     -3.331964    0.979619   -0.469609
H     -2.031692    1.509793    0.646627
H     -5.750127    0.234113    2.139156
H     -1.924066   -1.238417    2.197009
