34

C     -3.136645    0.829976    0.193042
C     -2.157945   -0.339932    0.370717
C     -0.724599    0.167435    0.584894
N      0.211396   -0.960580    0.730234
C      1.583092   -0.514309    1.037817
C      2.326509   -0.001056   -0.212583
C      3.783288    0.405762    0.100968
C      4.613752   -0.790826    0.488452
O      4.824159   -1.717967   -0.338095
O      5.147309   -0.879827    1.768010
N      4.386664    1.086032   -1.051486
C     -4.601058    0.367482    0.112617
N     -4.879659   -0.372596   -1.119790
H     -3.041424    1.515805    1.063319
H     -2.874908    1.406326   -0.721213
H     -2.465116   -0.950059    1.248234
H     -2.176799   -0.984082   -0.534121
H     -0.439708    0.792850   -0.288337
H     -0.700957    0.802429    1.499311
H     -0.113936   -1.563981    1.522131
H      0.210419   -1.540967   -0.141468
H      1.572637    0.273965    1.823956
H      2.146690   -1.377732    1.455753
H      1.795395    0.888527   -0.610145
H      2.317150   -0.782689   -1.003845
H      3.771760    1.117991    0.957289
H      4.373037    0.466922   -1.895082
H      5.375750    1.347768   -0.832242
H      3.857206    1.963105   -1.262726
H     -4.850403   -0.262464    0.995244
H     -5.254368    1.267350    0.149457
H     -5.910175   -0.533613   -1.193030
H     -4.565820    0.175131   -1.953634
H     -4.402692   -1.302174   -1.101960
