41

C     -5.060422    1.614887   -0.940316
C     -4.005693    0.634905   -0.523835
C     -3.881891    0.189789    0.733462
C     -2.750983   -0.799235    0.895860
C     -1.430467   -0.065240    0.510786
C     -1.579693    0.418425   -0.971304
C     -2.988352    0.029612   -1.470723
O     -3.092834   -1.389531   -1.345049
O     -2.983244   -1.836431   -0.061246
C     -0.154220   -0.907815    0.839398
C      0.047625   -2.169745   -0.023958
C      1.137994   -0.056779    0.942658
C      1.624593    0.559149   -0.378991
C      3.006871    1.141276   -0.217192
C      4.151966    0.441380   -0.377419
C      5.463511    1.146806   -0.147409
C      4.150409   -1.011178   -0.794296
H     -4.980494    1.837675   -2.024645
H     -6.066422    1.192412   -0.735209
H     -4.937093    2.560571   -0.371951
H     -4.532284    0.499010    1.545877
H     -2.724767   -1.208736    1.927848
H     -1.378806    0.843687    1.153984
H     -0.827619   -0.026389   -1.649742
H     -1.463673    1.523401   -1.025408
H     -3.148194    0.342796   -2.524135
H     -0.307060   -1.290009    1.874141
H     -0.760918   -2.904035    0.164783
H      0.080753   -1.948328   -1.107323
H      1.001614   -2.667918    0.251097
H      1.940075   -0.698099    1.368685
H      0.976206    0.762240    1.677890
H      1.610443   -0.178460   -1.205812
H      0.946732    1.390355   -0.660341
H      3.066931    2.189281    0.066947
H      5.552668    2.009536   -0.841224
H      6.328889    0.473336   -0.318575
H      5.511912    1.516042    0.898953
H      3.576982   -1.622019   -0.067739
H      5.180380   -1.421536   -0.841185
H      3.698575   -1.115087   -1.802853
