30

C     -4.292790   -0.581764   -0.001801
C     -3.033644   -1.333187    0.421981
C     -1.949747   -1.208743   -0.614484
O     -2.121350   -1.765636   -1.733162
C     -0.662037   -0.521154   -0.339872
C      0.519690   -1.093883   -0.827689
C      1.767216   -0.496904   -0.586965
C      1.834135    0.700140    0.148008
C      0.646878    1.304868    0.631363
C     -0.596510    0.692885    0.373298
O     -1.775963    1.304894    0.803740
O      0.633482    2.507780    1.364441
C      1.762340    3.291922    1.733950
O      3.077960    1.284385    0.391675
O      2.961098   -1.066449   -1.060856
C      3.042726   -2.271058   -1.816134
H     -5.062756   -0.670382    0.793263
H     -4.702249   -1.014061   -0.939717
H     -4.072989    0.493946   -0.164800
H     -3.283431   -2.408521    0.548631
H     -2.687470   -0.963162    1.409968
H      0.461907   -2.021054   -1.382422
H     -1.787075    2.180923    1.311494
H      2.440977    2.705342    2.388138
H      1.412251    4.176470    2.304281
H      2.293528    3.652705    0.828260
H      3.947281    0.882309    0.062535
H      4.106109   -2.477219   -2.054919
H      2.479638   -2.164623   -2.767351
H      2.640791   -3.120771   -1.224853
