47

C      4.173362    1.694642   -0.796403
C      4.364760    0.345387   -0.100024
C      3.049495   -0.139719    0.546989
C      1.980364   -0.478535   -0.462253
O      2.284351   -1.148513   -1.486209
C      0.557844   -0.157424   -0.204026
C      0.155562    1.174647    0.034611
C     -1.198802    1.451108    0.296941
C     -2.140047    0.423579    0.317590
C     -1.749768   -0.899408    0.083611
C     -0.403118   -1.192040   -0.208095
O     -0.002978   -2.506678   -0.471927
C     -0.302496   -3.147172   -1.707697
C     -2.765517   -1.958896    0.245215
C     -4.052686   -1.651588    0.430183
C     -4.545204   -0.218680    0.358380
O     -3.479994    0.711787    0.599064
C     -5.121078    0.043055   -1.039351
C     -5.627925    0.004161    1.420142
O      1.115608    2.198399   -0.016924
C      0.842699    3.578787    0.200446
O      5.345812    0.510858    0.910911
C      6.202480   -0.609149    0.966387
H      5.132434    2.015823   -1.255272
H      3.412858    1.618837   -1.602135
H      3.858084    2.468200   -0.064399
H      4.677655   -0.381389   -0.890046
H      3.253293   -1.060533    1.133123
H      2.685624    0.622056    1.269366
H     -1.535116    2.461570    0.484536
H      0.171299   -2.593478   -2.545188
H     -1.398064   -3.190097   -1.875328
H      0.098793   -4.180942   -1.688336
H     -2.471910   -3.000618    0.254694
H     -4.771811   -2.455421    0.536931
H     -5.485377    1.089986   -1.115932
H     -5.967359   -0.645513   -1.252803
H     -4.336970   -0.108269   -1.812385
H     -6.491763   -0.675745    1.254463
H     -5.990843    1.053894    1.385844
H     -5.213686   -0.187200    2.433474
H      1.785399    4.154419    0.099915
H      0.440697    3.731787    1.224162
H      0.118885    3.948758   -0.556001
H      6.820513   -0.676767    0.044142
H      6.891750   -0.485895    1.826667
H      5.632890   -1.552070    1.121494
