48

C     -5.392818    0.166817    1.946038
O     -4.625981    1.358330    1.803487
C     -3.330584    1.412068    1.264451
C     -2.701392    2.658868    1.168778
C     -1.396147    2.751557    0.674038
C     -0.714332    1.602754    0.251787
C      0.726039    1.693168   -0.186792
C      1.486397    0.443543    0.295039
C      0.791689   -0.797822   -0.254655
C     -0.624253   -0.849655   -0.257664
C     -1.366242    0.349451    0.256435
C     -2.651581    0.258501    0.826687
C     -1.283288   -1.962449   -0.845009
C     -0.512897   -3.069985   -1.279171
C      0.882783   -3.017794   -1.222104
C      1.537832   -1.875448   -0.760106
C      3.036861   -1.803331   -0.800432
C      3.474051   -0.372176   -1.090814
N      2.916551    0.527543   -0.073574
C      3.770019    1.495535    0.571501
O      3.370950    2.101575    1.604618
O      5.042046    1.765320    0.054170
C      5.927464    2.708710    0.645226
O     -1.118034   -4.221374   -1.780045
O     -2.679806   -1.898580   -1.016315
C     -3.513916   -2.882051   -1.618251
O     -3.377007    3.804622    1.586085
H     -6.382107    0.422133    2.377783
H     -4.878047   -0.538854    2.631709
H     -5.549349   -0.308039    0.954251
H     -0.906335    3.717031    0.638063
H      0.768096    1.760252   -1.295780
H      1.197524    2.607021    0.233518
H      1.415232    0.383973    1.404585
H     -3.110137   -0.706924    0.969925
H      1.461555   -3.862443   -1.576386
H      3.445302   -2.130309    0.180132
H      3.443447   -2.469689   -1.592518
H      4.584560   -0.343316   -1.098307
H      3.113706   -0.059863   -2.095367
H      6.166048    2.405489    1.686665
H      5.463449    3.717762    0.644591
H      6.867220    2.744692    0.056990
H     -0.576758   -5.017421   -2.096975
H     -4.558279   -2.508463   -1.625013
H     -3.202655   -3.060691   -2.668911
H     -3.488160   -3.821685   -1.027763
H     -2.948714    4.721646    1.535401
