50

C     -3.680810    1.977594    1.857536
C     -3.069104    0.879226    1.015003
C     -3.892223    0.041779    0.354185
C     -3.421063   -1.061205   -0.562989
C     -1.896581   -1.337330   -0.513330
C     -1.028406   -0.056782   -0.249249
C     -1.569533    0.596379    1.071927
C     -0.741604    1.828203    1.518181
C      0.738414    1.555719    1.588917
O      1.398736    2.150825    2.428808
C      1.433471    0.675466    0.566666
C      0.478814   -0.478145    0.040621
C      1.227557   -1.417909   -0.983274
C      2.712018   -1.630878   -0.540996
C      3.393628   -0.257607   -0.251989
C      2.765905    0.087228    1.090779
C      2.674612   -1.265311    1.710544
O      2.556633   -1.495252    2.942074
O      2.694888   -2.252316    0.741500
O      3.038719    0.734752   -1.191414
C      2.014343    1.496555   -0.595239
C      4.924492   -0.376257   -0.182811
O      1.182703   -0.898129   -2.285438
C     -1.196069    0.926826   -1.446088
O     -1.521401   -1.941246   -1.726492
O     -4.109408   -2.245662   -0.253068
H     -3.475158    1.780960    2.930462
H     -3.252377    2.960475    1.572727
H     -4.781873    2.048046    1.725638
H     -4.964903    0.214910    0.382735
H     -3.682807   -0.750236   -1.601654
H     -1.708626   -2.051332    0.325068
H     -1.458851   -0.151389    1.890753
H     -0.916655    2.696008    0.850287
H     -1.074236    2.131697    2.534899
H      0.345401   -1.144301    0.921230
H      0.742865   -2.420585   -0.969498
H      3.271036   -2.250182   -1.275567
H      3.388200    0.797733    1.681207
H      1.286711    1.762525   -1.373247
H      2.454762    2.448793   -0.221852
H      5.324362   -0.669981   -1.176414
H      5.236045   -1.137778    0.563610
H      5.369129    0.601758    0.099478
H      1.433784   -1.636953   -2.899088
H     -2.264212    1.089473   -1.690032
H     -0.810748    1.936451   -1.226714
H     -0.718597    0.547534   -2.367817
H     -1.823578   -2.886378   -1.687278
H     -5.028408   -2.153772   -0.618764
