33

C     -2.600559   -0.257082   -0.467497
C     -1.538938    0.386892    0.438264
C     -0.260705   -0.393792    0.376010
O     -0.024301   -1.268358    1.253286
N      0.663384   -0.175440   -0.700240
C      1.945725   -0.879571   -0.788174
C      2.989783   -0.169854    0.094166
C      4.302702   -0.958655    0.188001
C      5.269093   -0.259690    1.090935
O      5.288815   -0.521415    2.322421
O      6.114688    0.717411    0.581178
C      2.391481   -0.939165   -2.224672
O      2.490877   -2.049335   -2.810606
O      2.686421    0.229300   -2.917443
C     -3.927877    0.531445   -0.549491
C     -3.732607    1.878862   -1.198454
O     -3.513505    2.906574   -0.503313
O     -3.743863    1.982545   -2.583742
N     -4.582229    0.651690    0.761287
H     -2.816528   -1.283303   -0.096303
H     -2.188911   -0.362061   -1.496366
H     -1.895064    0.410058    1.490001
H     -1.336591    1.430608    0.118388
H      0.444146    0.575660   -1.394316
H      1.811902   -1.922259   -0.420737
H      2.572382   -0.054451    1.119013
H      3.189804    0.849716   -0.304585
H      4.762271   -1.058082   -0.818611
H      4.103358   -1.979698    0.580742
H     -4.605191   -0.052025   -1.213533
H     -5.534190    1.067820    0.638341
H     -4.032473    1.260772    1.408806
H     -4.693298   -0.295116    1.191641
