47

C     -5.742296    0.700230   -0.253502
C     -6.533673   -0.094517    0.748767
C     -5.903596   -1.004847    1.501409
C     -4.419249   -1.188361    1.340100
C     -4.042647   -1.259763   -0.162389
C     -4.815221   -0.243965   -1.054863
C     -3.761167    0.523380   -1.859410
N     -2.467038    0.038282   -1.411312
C     -2.549619   -1.004431   -0.400252
C     -1.243241    0.400495   -2.077575
O     -1.288189    0.882319   -3.242185
C      0.073155    0.209878   -1.436631
C      0.292145    0.623545   -0.114777
C      1.545397    0.455350    0.481302
C      2.608914   -0.114105   -0.241810
C      2.387141   -0.518112   -1.570033
C      1.134144   -0.346450   -2.165367
C      3.941529   -0.306488    0.378715
O      4.708367   -1.200623   -0.073128
N      4.377944    0.520983    1.470699
C      5.659589    0.323800    2.148302
C      6.706980    1.311733    1.628308
C      7.055557    1.037762    0.195719
O      6.538884    1.729787   -0.720571
O      7.919062   -0.001969   -0.135630
H     -5.137965    1.454604    0.296873
H     -6.432136    1.234852   -0.941238
H     -7.610643    0.024217    0.818204
H     -6.463747   -1.630160    2.189681
H     -4.092986   -2.113879    1.860900
H     -3.916756   -0.321908    1.823438
H     -4.284763   -2.286588   -0.520747
H     -5.455142   -0.817352   -1.764544
H     -3.886776    0.313074   -2.944351
H     -3.820096    1.622116   -1.699399
H     -2.034760   -0.677098    0.525872
H     -2.056623   -1.928671   -0.773661
H     -0.501805    1.092567    0.452948
H      1.669868    0.756799    1.512813
H      3.187259   -0.956556   -2.153784
H      0.988629   -0.661271   -3.191557
H      3.841463    1.385336    1.706968
H      6.018979   -0.721793    2.029914
H      5.515597    0.497834    3.236264
H      7.626664    1.224119    2.244954
H      6.327858    2.351510    1.735957
H      8.335012   -0.585218    0.580608
