13

C      2.184580   -0.013017    0.099729
C      0.695773   -0.021870    0.032826
N     -0.027684   -0.835926    0.718205
C     -1.431604   -0.571084    0.436194
C     -1.413393    0.591194   -0.567406
O     -0.033472    0.852848   -0.745425
H      2.573343   -1.048064   -0.001169
H      2.510044    0.409417    1.073050
H      2.595716    0.608780   -0.722701
H     -1.904440   -1.473572   -0.007082
H     -1.956922   -0.282592    1.371783
H     -1.871986    0.294952   -1.534977
H     -1.919955    1.488934   -0.153027
