30

C      1.501684   -0.189099   -1.513001
C      2.895721   -0.220672   -1.466013
C      3.573219   -0.221883   -0.238095
C      2.826183   -0.213781    0.964631
C      1.423724   -0.169656    0.904352
C      0.749989   -0.156635   -0.328684
C     -0.734338   -0.115496   -0.377437
C     -1.454874    0.711273    0.501054
C     -2.857803    0.763575    0.461992
C     -3.557678   -0.048322   -0.463034
C     -2.833405   -0.862845   -1.345512
C     -1.439217   -0.897051   -1.305352
N     -4.990737   -0.086405   -0.510881
N     -3.536868    1.665630    1.346836
N      3.457119   -0.278967    2.251277
N      5.007465   -0.204434   -0.243792
H      1.011915   -0.165901   -2.478479
H      3.452833   -0.227066   -2.394664
H      0.855951   -0.176350    1.826975
H     -0.923081    1.343582    1.201786
H     -3.354119   -1.489333   -2.059080
H     -0.912964   -1.554620   -1.985953
H     -5.590049    0.323638    0.236019
H     -5.477784   -0.623452   -1.262880
H     -4.542909    1.912136    1.236045
H     -3.004192    2.183399    2.081201
H      2.888866   -0.178184    3.121938
H      4.462906   -0.521116    2.373396
H      5.571356    0.001440    0.607568
H      5.531090   -0.303406   -1.142211
