50

C      1.064151   -4.659496    0.524133
C      0.014688   -3.712860    1.108138
C      0.525344   -2.264143    1.203031
C      0.602733   -1.545113   -0.172254
C     -0.429521   -0.446107   -0.310588
O     -0.074462    0.760559   -0.419197
N     -1.825762   -0.783281   -0.334559
C     -2.871417    0.232218   -0.492639
C     -2.983085    0.642792   -1.977297
C     -3.948276    1.813948   -2.220409
C     -3.457242    3.082791   -1.585798
O     -2.514152    3.726125   -2.120043
N     -4.027208    3.548429   -0.362287
C     -4.179394   -0.294081    0.035376
O     -4.737362   -1.282905   -0.513159
O     -4.771947    0.309262    1.139969
N      1.969887   -1.070167   -0.450432
C      2.653249    0.035744    0.187954
C      3.775917    0.632557   -0.437445
C      4.502178    1.628664    0.239180
C      4.114277    2.070622    1.512817
C      2.977957    1.505036    2.108067
C      2.257197    0.504816    1.455721
N      4.862587    3.099914    2.187274
O      4.528946    3.486967    3.326974
O      5.949055    3.686430    1.581046
N      4.156265    0.278995   -1.778101
O      5.357412    0.306569   -2.117632
O      3.195065    0.134327   -2.752677
H      1.987124   -4.643621    1.142911
H      1.320428   -4.374832   -0.516920
H      0.663316   -5.695013    0.514622
H     -0.913417   -3.760339    0.500625
H     -0.238499   -4.065904    2.131320
H      1.522382   -2.276853    1.697047
H     -0.154391   -1.708764    1.888320
H      0.348912   -2.275463   -0.972039
H     -2.094547   -1.794429   -0.295040
H     -2.593929    1.120649    0.116170
H     -1.978860    0.924689   -2.362231
H     -3.322663   -0.230456   -2.576177
H     -4.962758    1.562691   -1.844590
H     -4.039044    1.978502   -3.315789
H     -3.676666    4.426217    0.083131
H     -4.796125    3.017413    0.104559
H     -5.652159   -0.030471    1.508157
H      2.495962   -1.618821   -1.167119
H      5.358143    2.079599   -0.245776
H      2.646912    1.833073    3.085067
H      1.392799    0.103521    1.958590
