48

C      0.396028   -0.929311   -4.366110
C      1.578368   -1.098025   -3.399582
C      1.333227   -0.385869   -2.043007
C      0.121840   -0.953476   -1.345108
O      0.100642   -2.174931   -1.029856
N     -0.987459   -0.103779   -1.018875
C     -2.181880   -0.606729   -0.336272
C     -2.872728    0.539323    0.426455
C     -4.000662    0.034130    1.336218
C     -4.592427    1.168928    2.115860
O     -5.614561    1.763036    1.680846
N     -3.977952    1.610963    3.326071
C     -3.111895   -1.226917   -1.345454
O     -3.397645   -0.607217   -2.404371
O     -3.686875   -2.472282   -1.109475
N      2.504131   -0.518371   -1.163934
C      2.562796    0.037988    0.166168
C      3.322241   -0.596049    1.179663
C      3.436570    0.012418    2.441566
C      2.782917    1.221837    2.726120
C      2.012371    1.828758    1.723504
C      1.907994    1.247893    0.459827
N      2.895795    1.822444    4.029893
O      2.302055    2.889024    4.293394
O      3.653992    1.226817    5.011704
N      3.945076   -1.873701    0.962737
O      3.353782   -2.763095    0.315875
O      5.095921   -2.201971    1.641759
O      2.756409   -0.622710   -4.003290
H      0.638064   -1.403340   -5.340824
H     -0.514345   -1.419539   -3.961163
H      0.181446    0.147111   -4.536285
H      1.713216   -2.186279   -3.213667
H      1.170625    0.691045   -2.261131
H     -0.976524    0.886300   -1.355107
H     -1.872708   -1.374022    0.407792
H     -3.277340    1.284850   -0.294080
H     -2.110740    1.052609    1.054715
H     -4.796524   -0.446512    0.726547
H     -3.604462   -0.726019    2.044139
H     -4.386035    2.406174    3.865367
H     -3.111295    1.150132    3.681500
H     -3.494364   -2.988722   -0.259596
H      3.320751   -1.078004   -1.498811
H      4.014945   -0.477646    3.213755
H      1.497385    2.761853    1.912703
H      1.330113    1.765589   -0.292167
H      2.639721    0.350041   -4.166013
