48

C     -3.092532    1.124860   -1.369648
C     -2.138829    0.729224   -0.432134
C     -2.526452    0.239499    0.826722
C     -3.905570    0.158955    1.139371
C     -4.854783    0.578229    0.191052
C     -4.460328    1.057591   -1.067980
N     -5.446298    1.466936   -2.034225
O     -5.100037    1.888643   -3.157404
O     -6.788027    1.397714   -1.737608
N     -4.361276   -0.375450    2.395723
O     -3.743652   -1.306830    2.951799
O     -5.575671    0.014330    2.911767
N     -1.535827   -0.088158    1.821022
C     -0.353101   -0.940125    1.608826
C     -0.721402   -2.291233    0.943343
C     -1.044354   -2.207777   -0.524148
O     -0.128446   -1.981660   -1.359115
N     -2.381266   -2.411221   -0.985379
C      0.778967   -0.180839    0.951920
O      0.765648    1.081096    0.960662
N      1.926885   -0.875235    0.438067
C      3.003111   -0.188468   -0.279982
C      4.136859    0.161085    0.705339
C      5.249868    1.017993    0.080874
C      4.763685    2.393747   -0.271492
O      4.585825    3.246210    0.638845
N      4.479774    2.737966   -1.627845
C      3.490954   -1.066510   -1.404602
O      4.052485   -2.165889   -1.151136
O      3.302721   -0.691248   -2.731955
H     -2.756860    1.491104   -2.331335
H     -1.097695    0.812001   -0.700918
H     -5.908070    0.508061    0.429864
H     -1.722659    0.218015    2.803330
H      0.034666   -1.205964    2.617211
H      0.111625   -3.013196    1.076437
H     -1.586257   -2.727830    1.487950
H     -2.599622   -2.356452   -2.005229
H     -3.158549   -2.597852   -0.313695
H      2.068752   -1.875800    0.701674
H      2.606028    0.752098   -0.718801
H      4.586418   -0.775992    1.100376
H      3.709436    0.705164    1.576331
H      6.078373    1.114797    0.815321
H      5.668963    0.514796   -0.816229
H      4.124898    3.690422   -1.865563
H      4.613806    2.042827   -2.394904
H      2.847817    0.180365   -2.976227
