26

C      3.111404   -0.858106   -0.923296
C      2.450226   -0.251724    0.291735
C      1.131068    0.033466    0.309359
C      0.216288   -0.223805   -0.863104
C     -1.198435    0.183657   -0.537414
C     -1.654783    1.465261   -0.891268
C     -2.953957    1.866863   -0.569449
C     -3.805456    0.998800    0.116651
C     -3.358476   -0.271554    0.487746
C     -2.055715   -0.683778    0.170166
O     -1.610912   -1.947761    0.557562
C      3.271778    0.046185    1.519140
H      2.649699   -1.840623   -1.155552
H      4.196585   -1.021139   -0.757776
H      2.996657   -0.180680   -1.795303
H      0.704864    0.469851    1.210953
H      0.579324    0.345053   -1.746522
H      0.241826   -1.302189   -1.129745
H     -1.004078    2.154004   -1.415882
H     -3.299761    2.853502   -0.849604
H     -4.810979    1.312479    0.365736
H     -4.023747   -0.934303    1.026415
H     -2.208152   -2.587398    1.068391
H      2.873845   -0.524962    2.384600
H      4.336669   -0.233075    1.378494
H      3.224217    1.131975    1.747967
