29

C      3.460495    0.451788   -2.264982
C      4.726495    0.296163   -1.700452
C      4.834122   -0.023663   -0.346551
N      3.713330   -0.180162    0.407136
C      2.460824   -0.035161   -0.113206
C      2.320513    0.287187   -1.475351
C      1.272197   -0.217358    0.755225
N      0.021606   -0.072012    0.233335
C     -1.112064   -0.225257    0.974132
C     -0.997224   -0.547171    2.336336
C      0.268627   -0.702848    2.901048
C      1.409437   -0.539197    2.115372
C     -2.440123   -0.051408    0.336763
C     -2.552312    0.271016   -1.027968
C     -3.818076    0.427624   -1.596725
C     -4.959066    0.264033   -0.811200
C     -4.816259   -0.055642    0.539480
N     -3.575961   -0.204314    1.076389
H      3.362101    0.699858   -3.313944
H      5.614998    0.422020   -2.305527
H      5.808678   -0.147724    0.106275
H      1.344044    0.410905   -1.926404
H     -1.872877   -0.677483    2.959422
H      0.365775   -0.950914    3.950180
H      2.384744   -0.663361    2.568522
H     -1.675136    0.400863   -1.649215
H     -3.913959    0.675711   -2.645915
H     -5.943700    0.383704   -1.244292
H     -5.691229   -0.185827    1.162120
