24

C     -3.067892   -2.104262    0.755052
C     -1.674687   -1.584372    0.612160
O     -0.710720   -2.395151    0.554016
N     -1.445364   -0.171882    0.510040
C     -0.110379    0.391581    0.288235
C      0.216652    0.374988   -1.219824
C      1.647454    0.834590   -1.544565
C      2.673266   -0.113356   -1.003960
O      2.902702   -1.201140   -1.597244
O      3.350301    0.194067    0.172032
C     -0.045322    1.785155    0.852607
O     -0.799312    2.691108    0.404734
O      0.855425    2.076027    1.872506
H     -3.611510   -1.971627   -0.203335
H     -3.596046   -1.545226    1.555525
H     -3.056843   -3.182941    1.019990
H     -2.277748    0.460911    0.485974
H      0.634915   -0.229666    0.831576
H     -0.500275    1.032597   -1.758884
H      0.072380   -0.654045   -1.616736
H      1.828266    1.853944   -1.141705
H      1.762861    0.892842   -2.648425
H      4.036386   -0.443291    0.558166
H      0.915490    3.009150    2.262067
