43

C     -5.161954    1.105109    0.707082
C     -4.371764    0.111473   -0.172136
C     -4.856456   -1.326062    0.116177
C     -4.699365    0.429925   -1.650976
C     -2.867301    0.221627    0.151716
C     -1.899502    0.574572   -0.817660
C     -0.545908    0.662458   -0.483139
C     -0.112612    0.403846    0.827123
C     -1.061453    0.049468    1.795498
C     -2.415502   -0.038951    1.464404
C      1.357538    0.485509    1.190340
C      1.851103    1.847316    0.920593
N      2.239668    2.916632    0.708585
C      2.184194   -0.548352    0.449034
O      1.616534   -1.563489   -0.040062
C      3.665213   -0.450678    0.373152
C      4.380085   -0.155827    1.548971
C      5.773033   -0.096960    1.541369
C      6.475172   -0.338505    0.363916
C      5.787676   -0.625261   -0.815712
C      4.378335   -0.663667   -0.840792
C      3.668459   -0.951931   -2.150854
F      4.510659   -0.767090   -3.234311
F      2.587924   -0.102998   -2.312169
F      3.228514   -2.262500   -2.158873
H     -4.795491    2.141680    0.543307
H     -6.245572    1.074544    0.460600
H     -5.060670    0.866037    1.786282
H     -4.268105   -2.058475   -0.477973
H     -5.929550   -1.441433   -0.150418
H     -4.751951   -1.584759    1.190551
H     -5.791205    0.340564   -1.841035
H     -4.183863   -0.280499   -2.332927
H     -4.400724    1.469295   -1.907951
H     -2.166341    0.786138   -1.842061
H      0.169857    0.932025   -1.249954
H     -0.755533   -0.161387    2.812734
H     -3.110581   -0.315267    2.245394
H      1.483545    0.299113    2.278249
H      3.860691    0.008714    2.484393
H      6.309973    0.124128    2.454856
H      7.557091   -0.304194    0.364301
H      6.366140   -0.811889   -1.711317
