24

C     -3.532580   -1.122154    0.637548
O     -2.615408   -0.142201    0.162055
C     -1.221939   -0.309302    0.124215
C     -0.436804    0.744108   -0.370837
C      0.964333    0.604108   -0.422462
C      1.578551   -0.581713    0.005633
C      0.789749   -1.621830    0.513189
C     -0.598996   -1.491503    0.567585
C      3.077129   -0.709956   -0.019193
O      3.628054   -0.137874    1.135060
O     -1.085111    1.913394   -0.799633
C     -0.420966    3.059257   -1.322643
H     -4.564559   -0.724865    0.550844
H     -3.454962   -2.046204    0.026551
H     -3.328195   -1.350427    1.704934
H      1.583278    1.410395   -0.793090
H      1.250420   -2.535810    0.867602
H     -1.179499   -2.315368    0.959475
H      3.383081   -1.777548   -0.107975
H      3.484749   -0.183236   -0.908291
H      3.466105   -0.780203    1.874837
H      0.269991    3.480497   -0.562156
H     -1.176317    3.829336   -1.581003
H      0.139898    2.789099   -2.242244
