20

C     -3.181647    0.318074   -0.079198
C     -2.927811   -1.008058   -0.444906
C     -1.613060   -1.480585   -0.509734
C     -0.546641   -0.625752   -0.208208
C     -0.800621    0.713605    0.161274
C     -2.122358    1.179888    0.223943
C      0.281565    1.550114    0.458402
C      1.584975    1.053757    0.386153
C      1.799982   -0.283294    0.015247
N      0.733354   -1.081294   -0.270036
C      3.162212   -0.836566   -0.070132
O      3.332250   -2.039642   -0.405125
O      4.267905   -0.040338    0.216734
H     -4.201110    0.678396   -0.030666
H     -3.751365   -1.670411   -0.678391
H     -1.425974   -2.508807   -0.793808
H     -2.334553    2.204330    0.505593
H      0.120461    2.582492    0.745053
H      2.415072    1.709138    0.617995
H      5.207367   -0.415046    0.159810
