30

C      4.900920    0.010136   -1.880636
O      4.770873   -0.575651   -0.589390
C      3.549720   -0.759657    0.075606
C      3.559293   -1.347153    1.342007
C      2.348600   -1.538656    2.014110
O      2.339619   -2.069808    3.155272
O      1.202994   -1.162912    1.453888
C      1.145286   -0.593122    0.252392
C      2.318788   -0.377223   -0.481914
C     -0.182775   -0.208857   -0.316757
C     -1.011979    0.678685    0.535879
O     -0.261028    1.178840   -0.547514
C     -2.481222    0.679757    0.237192
C     -3.116833    1.854571   -0.194907
C     -4.493542    1.858466   -0.441359
C     -5.243429    0.694852   -0.246342
C     -4.618530   -0.473204    0.200236
C     -3.242128   -0.480740    0.447842
H      5.973530    0.032559   -2.162326
H      4.348470   -0.593785   -2.631183
H      4.514381    1.051140   -1.868272
H      4.494754   -1.651937    1.795559
H      2.263047    0.078350   -1.461881
H     -0.647528   -0.794103   -1.138624
H     -0.625649    1.041963    1.511994
H     -2.547200    2.764063   -0.340789
H     -4.979587    2.764256   -0.780141
H     -6.308937    0.699655   -0.436403
H     -5.201122   -1.371697    0.357587
H     -2.768783   -1.388788    0.800776
