40

C     -5.611066   -0.095245   -0.043360
O     -4.203603    0.122083   -0.053824
C     -3.235413   -0.884692   -0.215591
C     -1.855871   -0.546751   -0.209029
C     -0.891492   -1.572871   -0.373522
C     -1.291949   -2.903135   -0.539738
C     -2.649999   -3.227090   -0.544978
C     -3.612263   -2.231730   -0.385134
O     -0.330209   -3.899977   -0.699243
O      0.404590   -1.289416   -0.372158
C      0.874187   -0.059770   -0.219601
C      2.249664    0.164010   -0.225695
C      3.359018   -0.818736   -0.386992
C      3.499910   -1.703191    0.806905
C      4.603173   -1.407943    1.465428
O      5.298912   -0.375666    0.861619
C      4.622394    0.078048   -0.301228
O      4.143649    1.409472   -0.111104
C      2.764314    1.416537   -0.072057
C      1.949374    2.528934    0.099685
C      0.544194    2.355038    0.114774
C     -0.002211    1.043006   -0.047093
C     -1.390945    0.780326   -0.044040
O     -2.212204    1.726076    0.105522
O     -0.316436    3.452996    0.286368
C      0.110620    4.800800    0.456658
H     -6.126066    0.876471    0.101000
H     -5.937926   -0.529413   -1.011757
H     -5.887233   -0.770758    0.793626
H     -2.963127   -4.255542   -0.673454
H     -4.653267   -2.523504   -0.394968
H     -0.588672   -4.872180   -0.821362
H      3.296009   -1.388254   -1.338893
H      2.799320   -2.473346    1.102217
H      4.928870   -1.906642    2.368285
H      5.268036    0.002629   -1.202019
H      2.406428    3.501442    0.217914
H     -0.780686    5.451388    0.568917
H      0.684268    5.135148   -0.433442
H      0.733706    4.891450    1.371365
