45

C      5.155135    1.444429    0.126384
C      3.880609    0.714855    0.581073
C      3.281885   -0.239407   -0.506427
C      1.973732    0.335623   -1.082281
C      0.968193    0.611100    0.055500
C      1.687669    1.122678    1.338953
O      2.947784    1.693719    1.027344
O      1.835763    0.102436    2.300954
O      0.254008   -0.585785    0.328945
C     -1.083306   -0.310950    0.704619
C     -1.709789   -1.532645    1.367413
C     -3.179679   -1.401849    1.002713
C     -3.187624   -0.356037   -0.131173
O     -1.853604   -0.004503   -0.433791
C     -3.896909   -0.872422   -1.404412
C     -4.075850    0.245162   -2.439859
O     -4.942272    1.229776   -1.946406
O     -3.143384   -1.905661   -1.989618
O     -3.949228   -0.973967    2.102158
O     -1.167806   -2.737372    0.875932
O      2.230083    1.529108   -1.780561
O      4.200820   -0.503226   -1.537914
O      4.879988    2.283546   -0.961154
H      5.542556    2.053763    0.973754
H      5.941822    0.705844   -0.147466
H      4.191667    0.092939    1.451618
H      3.031353   -1.202953   -0.001091
H      1.520470   -0.407829   -1.780965
H      0.291295    1.420165   -0.316348
H      1.064682    1.938761    1.774059
H      0.985282    0.052988    2.810666
H     -1.137034    0.541426    1.425763
H     -1.552063   -1.500305    2.468178
H     -3.582316   -2.383970    0.671152
H     -3.714600    0.560917    0.217320
H     -4.916164   -1.237780   -1.129183
H     -3.089094    0.696185   -2.690092
H     -4.507779   -0.189960   -3.369009
H     -5.004957    1.921580   -2.655177
H     -3.529366   -2.766609   -1.681690
H     -3.557886   -0.126600    2.443090
H     -1.273720   -2.744061   -0.111812
H      2.585131    1.273391   -2.671766
H      3.862168   -1.295911   -2.030832
H      5.742338    2.709406   -1.205504
