42

C     -1.269147    3.253071    1.818651
C     -1.089164    2.037556    0.937326
C     -1.999639    1.874697   -0.061681
C     -1.958570    0.896684   -1.216244
C     -2.602830   -0.476583   -0.970469
C     -2.111420   -1.235509    0.245863
C     -0.883102   -1.799421    0.336078
C      0.273967   -1.600252   -0.620711
C      1.421594   -0.763245    0.053265
C      1.067803    0.752813    0.227915
C      0.006599    1.043832    1.316159
C      2.789360   -0.953415   -0.695474
C      2.804097   -0.339372   -2.105086
C      3.991825   -0.444104    0.119274
O      0.749388   -2.877250   -0.963837
C     -3.071019   -1.466362    1.388186
H     -0.510389    3.310081    2.626090
H     -1.181821    4.174992    1.205255
H     -2.273033    3.228712    2.293877
H     -2.778038    2.630254   -0.151098
H     -0.968356    0.822486   -1.675586
H     -2.554829    1.360272   -2.032675
H     -3.701399   -0.323370   -0.900361
H     -2.449089   -1.110554   -1.870357
H     -0.653160   -2.377690    1.228871
H     -0.042743   -1.096996   -1.552780
H      1.572484   -1.184641    1.073387
H      0.827195    1.224677   -0.737118
H      1.978662    1.298638    0.545015
H     -0.455526    0.143698    1.740742
H      0.560743    1.432366    2.197905
H      2.972884   -2.042850   -0.815313
H      2.724104    0.766790   -2.062041
H      3.755451   -0.596595   -2.617998
H      1.972766   -0.740935   -2.719681
H      4.934329   -0.836616   -0.319461
H      3.932139   -0.799622    1.169732
H      4.057486    0.663287    0.111465
H      0.100893   -3.267119   -1.607886
H     -4.043174   -0.956627    1.225128
H     -3.262146   -2.554159    1.505308
H     -2.635177   -1.071621    2.330362
