45

C     -6.353016    2.074977   -0.002246
C     -5.212615    1.575816    0.842976
O     -4.825568    2.241269    1.795687
C     -4.607424    0.219524    0.586933
C     -3.070006    0.293194    0.540121
C     -2.411994   -1.068782    0.190429
C     -2.488973   -2.075592    1.359254
O     -1.845094   -3.278844    1.030189
C     -0.962328   -0.901694   -0.291860
C     -0.514893   -1.460202   -1.523022
C      0.793469   -1.239159   -1.955768
C      1.705065   -0.512927   -1.182430
C      1.300457    0.014902    0.053766
C     -0.018232   -0.205641    0.509147
O     -0.378799    0.245767    1.774975
C      2.271178    0.817052    0.845318
O      1.845787    1.623770    1.713619
C      3.724451    0.760613    0.526229
C      4.112635    0.259120   -0.737688
C      3.098398   -0.323607   -1.647854
O      3.426970   -0.677776   -2.814236
C      5.463382    0.305059   -1.124167
C      6.430252    0.835631   -0.266915
C      6.058281    1.300654    0.992127
C      4.726814    1.237507    1.415057
O      4.456922    1.621195    2.730824
O      7.768901    0.890108   -0.651397
O     -1.311313   -2.262090   -2.347591
H     -6.544356    3.160704    0.168502
H     -7.269586    1.512240    0.270722
H     -6.118376    1.920343   -1.077577
H     -4.932752   -0.460617    1.404592
H     -4.993314   -0.187159   -0.375958
H     -2.778539    1.043408   -0.229343
H     -2.715381    0.657190    1.526211
H     -3.036104   -1.475957   -0.622383
H     -2.005590   -1.655233    2.265526
H     -3.548781   -2.288379    1.621901
H     -2.411331   -3.724855    0.342518
H      1.104858   -1.670280   -2.899507
H      5.770317   -0.071454   -2.091687
H      6.816994    1.682614    1.664394
H      3.606856    1.381983    3.221605
H      8.078433    0.524502   -1.542309
H     -2.206057   -2.658896   -2.094579
