48

C     -2.927955   -1.779750   -1.422113
C     -2.433935   -0.442252   -0.845453
C     -1.188223   -0.559002    0.069661
C      0.001293   -1.400858   -0.456448
C      1.286290   -0.606839   -0.060316
C      2.262530   -0.430830   -1.236895
C      3.461355    0.203176   -0.532742
C      3.162015    1.690592   -0.205907
C      1.646248    2.006850   -0.095956
C      0.797629    0.805637    0.425018
C     -0.681506    0.879039    0.026578
C     -1.577880    1.742813    0.951495
C     -3.065370    1.720210    0.475850
C     -3.556372    0.322194   -0.062199
O     -4.110168   -0.480501    0.954609
O     -3.931981    2.230122    1.458848
O     -0.876410    1.256939   -1.340149
C     -1.890689    0.486652   -1.879616
O     -2.332492    0.631168   -3.049984
C      3.508772   -0.587534    0.740707
C      4.584138   -0.692746    1.527907
C      2.199458   -1.246803    1.017675
C     -0.051194   -2.830364    0.024977
O     -0.293080   -3.098767    1.232190
O      0.213184   -3.865241   -0.863110
H     -3.858942   -1.623300   -2.007385
H     -3.142043   -2.494179   -0.599319
H     -2.173427   -2.233460   -2.097629
H     -1.430124   -0.869550    1.108612
H     -0.049754   -1.433525   -1.567284
H      1.856022    0.199609   -2.058414
H      2.544510   -1.420374   -1.664717
H      4.392744    0.085050   -1.128790
H      3.595268    2.325010   -1.009443
H      3.671164    1.988406    0.737500
H      1.297175    2.317097   -1.103548
H      1.497849    2.883792    0.570723
H      0.838056    0.847252    1.536740
H     -1.209101    2.791237    0.949974
H     -1.506377    1.364462    1.994946
H     -3.122798    2.425621   -0.382651
H     -4.382661    0.529263   -0.778557
H     -3.484928   -0.493175    1.722244
H     -3.774492    1.726283    2.298329
H      4.545347   -1.285034    2.436621
H      5.508020   -0.185823    1.268122
H      1.848804   -1.060141    2.055568
H      2.334030   -2.338427    0.863731
