28

C      1.550466    1.055112    0.719190
C      0.926435   -0.459623   -0.146549
C      2.121680   -0.765633   -0.403379
C      3.446497   -0.303495   -0.219285
C      4.513620   -1.010089   -0.665621
C      5.848401   -0.471035   -0.450418
O      6.875595   -1.157199   -0.834777
C     -0.353739   -0.131771    0.128598
C     -1.408668   -0.385020   -0.747533
C     -2.708606   -0.079937   -0.528539
C     -3.904337    0.198304   -0.333059
C     -3.997750    0.765748    1.112282
C     -5.144742    0.184472   -1.072552
O     -5.205727   -0.181145   -2.252228
H      1.949495    0.524368    1.524094
H      2.064840    1.439129   -0.104924
H      0.561064    1.498616    0.812651
H      2.047653   -1.835944   -0.927830
H      3.748139    0.608976    0.278889
H      4.296648   -1.949059   -1.139983
H      6.030387    0.461008   -0.001254
H     -0.752641    0.323237    1.023595
H     -1.009928   -0.852625   -1.634774
H     -3.084079   -0.502489   -1.861138
H     -4.939073    0.296135    1.453879
H     -4.168051    1.840352    1.054008
H     -3.222013    0.381010    1.756597
H     -6.081567    0.508596   -0.595925
