21

C     -2.933242    0.314108   -0.923461
C     -1.734111   -0.432736   -0.333227
C     -0.517730    0.501266   -0.228794
C      0.665930   -0.185998    0.466284
C      1.860524    0.764879    0.585054
C      3.010082    0.080874    1.260920
O      3.176055    0.209588    2.502435
O      3.874897   -0.733062    0.535215
O     -1.416260   -1.530358   -1.149589
H     -3.203294    1.179228   -0.280940
H     -3.810237   -0.364979   -0.980573
H     -2.697991    0.679644   -1.946045
H     -2.005006   -0.782181    0.690951
H     -0.211455    0.825924   -1.248107
H     -0.800457    1.405933    0.354117
H      0.969483   -1.082972   -0.117429
H      0.356009   -0.514426    1.483193
H      2.179799    1.098909   -0.425892
H      1.569928    1.665111    1.169936
H      3.752270   -0.870366   -0.460946
H     -2.085195   -2.237375   -0.953103
