40

C     -3.789405   -1.166052   -1.625463
N     -3.213662   -0.174016   -0.680497
C     -4.057325   -0.192056    0.540592
C     -3.289924    1.160194   -1.321686
C     -1.800825   -0.590331   -0.376432
C     -0.798750    0.499932    0.119171
C     -1.115619    1.030162    1.530158
C      0.045144    1.784076    2.107491
O      0.253859    2.979929    1.772625
O      0.923756    1.150028    2.976893
O      0.511301   -0.076608    0.140143
C      1.317892   -0.221606   -0.994447
O      0.926206    0.182199   -2.123441
C      2.684015   -0.810000   -0.847104
C      3.663081    0.247333   -0.321806
C      5.087600   -0.302697   -0.176276
C      5.182894   -1.311671    0.930532
O      5.234184   -2.540092    0.658984
O      5.186494   -0.903949    2.261220
H     -4.858464   -0.947366   -1.848810
H     -3.243438   -1.162218   -2.596087
H     -3.734134   -2.196087   -1.205525
H     -3.997523   -1.175574    1.057838
H     -5.126683   -0.007151    0.291110
H     -3.772546    0.592803    1.261747
H     -4.323531    1.378221   -1.673613
H     -2.610275    1.216379   -2.201177
H     -3.021799    1.970862   -0.611935
H     -1.793102   -1.433077    0.351850
H     -1.339113   -1.014718   -1.297010
H     -0.781724    1.366476   -0.576505
H     -1.375088    0.189075    2.208823
H     -1.967332    1.736343    1.489403
H      3.033526   -1.196070   -1.829689
H      2.626571   -1.663358   -0.138216
H      3.310400    0.638383    0.658751
H      3.689944    1.099846   -1.035813
H      5.776143    0.538559    0.052901
H      5.421849   -0.753366   -1.136448
H      5.135404    0.077260    2.507976
