18

C     -0.268531   -1.287636    0.412925
O      0.288580   -2.255673    0.994928
C      0.371278    0.005316    0.056637
C      0.943088    0.753523    1.222519
O      0.291019    1.119534    2.236060
N      2.327685    1.018706    1.050993
C      2.633032    0.448977   -0.209664
O      3.780952    0.483629   -0.724742
N      1.512766   -0.163449   -0.836694
N     -0.712896    0.735934   -0.596189
C     -1.774971   -0.010745   -0.609646
N     -1.616540   -1.290050   -0.009375
N     -3.005485    0.424471   -1.182172
H      2.970127    1.524512    1.700130
H      1.507048   -0.626108   -1.773122
H     -2.324914   -2.050135    0.092011
H     -3.839538   -0.203106   -1.174081
H     -3.082700    1.372301   -1.613290
