28

C     -2.178076   -0.879964    0.527804
C     -1.469957   -0.403695   -0.750599
C      0.019614   -0.618252   -0.625588
O      0.501226   -1.775274   -0.772765
N      0.878555    0.480020   -0.283929
C      2.322543    0.307210   -0.092476
C      3.040269    1.665748   -0.101648
O      2.829602    2.325831   -1.320896
C      2.589545   -0.401225    1.208459
O      1.954102   -0.076796    2.246871
O      3.567620   -1.388407    1.289467
N     -2.006430   -1.095259   -1.927136
C     -3.643533   -0.560158    0.488728
O     -4.469640   -1.444912    0.139204
N     -4.104655    0.752225    0.808774
H     -2.037676   -1.976076    0.656868
H     -1.727988   -0.378405    1.412596
H     -1.663340    0.685368   -0.873518
H      0.450761    1.423203   -0.139596
H      2.727479   -0.299972   -0.932139
H      4.132267    1.524159    0.070923
H      2.649642    2.305087    0.719439
H      3.406896    1.875455   -1.991456
H      4.112150   -1.657746    0.478971
H     -1.509074   -0.744926   -2.778410
H     -1.818222   -2.121814   -1.851241
H     -5.123387    0.977471    0.768638
H     -3.430293    1.501106    1.082126
