45

C     -4.332488   -1.661555    0.702990
C     -3.144957   -1.112393    1.031678
C     -1.862234   -1.686222    0.481932
C     -1.896574   -2.753552   -0.343367
C     -3.167777   -3.387050   -0.715351
O     -3.183511   -4.386893   -1.481419
C     -4.410047   -2.834646   -0.175333
O     -5.524704   -3.346942   -0.461306
N     -0.590766   -1.112000    0.845545
C      0.531793   -1.029856   -0.093115
C      1.626593   -0.100718    0.443476
C      2.787963    0.018412   -0.550809
C      3.886834    0.944666    0.001336
C      5.107220    1.136595   -0.931488
C      5.761774   -0.170886   -1.307612
O      6.709804   -0.609878   -0.604397
O      5.320680   -0.930119   -2.390494
N      4.789836    1.933338   -2.121069
C     -3.156938    0.154511    1.865838
C     -3.241130    1.412084    0.980687
C     -3.446584    2.643382    1.830246
O     -2.570181    2.987581    2.667479
O     -4.602467    3.409408    1.703739
N     -2.038415    1.548713    0.155572
H     -5.257704   -1.231066    1.068870
H     -0.983299   -3.184817   -0.730873
H     -0.478638   -0.680531    1.788243
H      0.960055   -2.043202   -0.247369
H      0.164189   -0.638851   -1.067139
H      1.192926    0.906774    0.626454
H      2.004617   -0.503804    1.408968
H      2.394881    0.417991   -1.508515
H      3.207657   -0.994411   -0.731001
H      3.447306    1.942139    0.221928
H      4.250307    0.527439    0.966703
H      5.859493    1.714792   -0.347823
H      4.537064   -0.647996   -2.964927
H      4.509743    2.892998   -1.813022
H      3.974392    1.529304   -2.630912
H     -4.037110    0.137675    2.547849
H     -2.279152    0.209943    2.537939
H     -4.116739    1.298739    0.303388
H     -5.330991    3.163515    1.044111
H     -1.213631    1.743716    0.768984
H     -2.159093    2.373671   -0.476461
