46

C     -3.105565   -2.214058    0.315314
N     -3.185684   -0.759847    0.016295
C     -4.423070   -0.537256   -0.771787
C     -3.304266   -0.051483    1.316720
C     -1.947945   -0.361031   -0.752892
C     -2.032115    0.920980   -1.641572
C     -2.194074    2.285872   -0.950423
C     -1.060972    2.608994   -0.026672
O     -1.226310    2.575450    1.220845
O      0.183945    2.939775   -0.546690
O     -0.808418   -0.263685    0.112266
C      0.189691   -1.240363    0.223716
O      0.168271   -2.275678   -0.496140
C      1.292373   -1.055925    1.220881
C      2.036172    0.274818    1.028188
C      2.640197    0.471744   -0.377125
C      3.644438   -0.614669   -0.811425
C      4.871910   -0.747723    0.103314
C      5.675873    0.514958    0.148775
O      6.450871    0.804507   -0.801703
O      5.541103    1.384798    1.226229
H     -4.000289   -2.565615    0.877950
H     -2.215051   -2.450414    0.937649
H     -3.045383   -2.817216   -0.618526
H     -4.347682   -1.015930   -1.773725
H     -4.630497    0.545138   -0.908981
H     -5.313337   -0.964832   -0.257309
H     -2.413146   -0.220704    1.960111
H     -4.190627   -0.411271    1.886843
H     -3.439752    1.034859    1.192537
H     -1.745500   -1.150466   -1.514772
H     -1.092869    0.967288   -2.237329
H     -2.836584    0.809599   -2.398498
H     -3.171768    2.377019   -0.442972
H     -2.206551    3.065088   -1.742593
H      2.008225   -1.903951    1.169100
H      0.845715   -1.069417    2.237794
H      2.834139    0.357860    1.795410
H      1.329993    1.109324    1.226047
H      3.137148    1.464966   -0.411788
H      1.818370    0.509214   -1.124470
H      3.991127   -0.378245   -1.841286
H      3.129989   -1.596717   -0.872816
H      5.516394   -1.566224   -0.283886
H      4.564848   -1.039408    1.129200
H      6.066665    2.249877    1.264299
