48

C      5.805755    0.998687    1.476341
C      4.425069    0.390952    1.705914
C      4.285527   -0.930033    0.992208
C      4.002301   -1.073384   -0.317300
C      3.715325    0.062286   -1.277359
C      2.234925    0.102466   -1.703095
C      1.325234    0.529350   -0.539159
C     -0.103722    0.630549   -0.975585
O     -0.468083    1.586890   -1.715361
O     -1.018019   -0.342704   -0.552597
C     -2.397756   -0.370514   -0.931544
C     -2.565204   -1.274003   -2.168668
C     -1.864077   -0.717966   -3.370078
O     -0.784562   -1.228188   -3.769149
O     -2.406518    0.363340   -4.053762
C     -3.232720   -0.940205    0.251215
N     -3.540038    0.022522    1.356613
C     -4.526695    1.039714    0.916687
C     -2.321208    0.700251    1.858175
C     -4.139301   -0.743731    2.477398
O      1.831139   -1.154660   -2.188086
H      5.975361    1.211644    0.399890
H      6.593841    0.303484    1.837177
H      5.889213    1.950032    2.041562
H      4.300379    0.217755    2.797055
H      3.627919    1.100547    1.397798
H      4.415502   -1.831028    1.585442
H      3.924042   -2.084301   -0.708938
H      4.008171    1.050392   -0.868565
H      4.338170   -0.093890   -2.184633
H      2.133693    0.865973   -2.511617
H      1.399282   -0.205833    0.290885
H      1.648498    1.520132   -0.151832
H     -2.754782    0.646373   -1.193205
H     -3.643234   -1.372982   -2.420935
H     -2.173092   -2.291737   -1.944070
H     -4.190202   -1.352218   -0.143845
H     -2.676746   -1.819298    0.653263
H     -5.437448    0.559071    0.496932
H     -4.105272    1.722450    0.149598
H     -4.845763    1.681352    1.769256
H     -2.537662    1.284085    2.781076
H     -1.526157   -0.038896    2.100448
H     -1.922785    1.421633    1.113330
H     -5.052392   -1.288343    2.147002
H     -3.420947   -1.492580    2.880317
H     -4.430429   -0.075183    3.318623
H      2.205467   -1.239710   -3.104822
