49

C      1.993174   -3.823811   -1.067558
C      1.933772   -2.436439   -0.427081
C      0.638440   -1.664593   -0.779321
C      0.590257   -1.293347   -2.273956
C      0.462367   -0.421759    0.139977
C      1.575967    0.588128   -0.038953
O      1.535600    1.409039   -0.996206
N      2.703688    0.578734    0.849880
C      3.876661    1.427088    0.623934
C      4.659491    1.634490    1.930572
O      3.887626    2.352061    2.856436
C      4.752777    0.796885   -0.425412
O      5.330880   -0.297541   -0.191611
O      4.905573    1.392693   -1.673848
N     -0.848918    0.204566   -0.077304
C     -2.063726   -0.356857    0.442592
O     -2.024540   -1.384717    1.173270
C     -3.397297    0.243318    0.062994
C     -4.327537    0.347519    1.290173
C     -5.652774    1.063413    0.984934
C     -5.445634    2.515729    0.684441
O     -5.255293    3.334007    1.624150
O     -5.435093    2.956536   -0.634830
N     -4.027229   -0.548645   -0.996081
H      2.879871   -4.369528   -0.682243
H      1.082640   -4.408703   -0.816634
H      2.092443   -3.744708   -2.169625
H      1.991816   -2.572803    0.674807
H      2.827483   -1.855425   -0.742567
H     -0.220949   -2.342259   -0.579867
H     -0.295235   -0.661754   -2.495151
H      0.499805   -2.207311   -2.896483
H      1.508049   -0.747462   -2.578898
H      0.497802   -0.764079    1.198035
H      2.740053   -0.144923    1.604015
H      3.545107    2.430129    0.274817
H      5.577759    2.223156    1.717176
H      4.979351    0.657226    2.361651
H      3.282590    1.697813    3.294285
H      4.444944    2.265270   -1.902812
H     -0.920971    1.054634   -0.680032
H     -3.220615    1.270092   -0.323919
H     -4.562465   -0.673864    1.662304
H     -3.803974    0.885948    2.111557
H     -6.169860    0.572682    0.132939
H     -6.319751    0.975267    1.869452
H     -5.282403    3.932854   -0.854996
H     -4.123275   -1.541053   -0.677296
H     -3.398448   -0.547700   -1.832479
