38

C      5.180225    0.030636   -0.246274
C      3.674701   -0.252694   -0.239508
C      3.041502    0.148956    1.104658
C      1.583802   -0.186226    1.126658
O      1.207783   -1.322061    1.526237
O      0.657592    0.753891    0.659933
C     -0.744563    0.494729    0.532583
C     -1.490052    1.842544    0.544890
C     -0.976442    2.746564    1.625193
O     -1.343734    2.580557    2.818217
O     -0.058218    3.743486    1.320447
C     -0.967682   -0.326438   -0.777344
N     -2.333459   -0.901328   -1.034258
C     -2.983754   -1.400903    0.200479
C     -2.178484   -2.050814   -1.963399
C     -3.218342    0.085263   -1.702696
O      3.048983    0.407433   -1.312483
H      5.614222   -0.267523   -1.224155
H      5.683762   -0.552080    0.554353
H      5.375653    1.112111   -0.082846
H      3.536902   -1.347246   -0.381513
H      3.167327    1.240118    1.276631
H      3.551283   -0.386902    1.935210
H     -1.068899   -0.085452    1.423238
H     -2.566043    1.680729    0.749180
H     -1.380959    2.352280   -0.436800
H     -0.225134   -1.155528   -0.733655
H     -0.638874    0.293838   -1.642175
H     -2.307363   -2.090634    0.753096
H     -3.920041   -1.955633   -0.034893
H     -3.272786   -0.568422    0.875943
H     -1.668156   -1.738696   -2.902839
H     -3.163914   -2.489038   -2.241741
H     -1.575731   -2.864862   -1.500567
H     -3.481756    0.930136   -1.043929
H     -4.183070   -0.382033   -2.004215
H     -2.742511    0.497247   -2.620475
H      3.166232    1.383993   -1.173947
