40

C     -4.451900    0.110808    1.528000
N     -3.297592    0.561733    0.729898
C     -3.698545    1.657062   -0.168782
C     -2.600694   -0.526003   -0.009540
C     -1.735876   -1.399326    0.932068
C     -0.727893   -0.584901    1.759360
C      0.275993    0.112297    0.892161
N      0.225140    1.434229    0.616281
C      1.263037    1.635963   -0.219789
C      1.906093    0.437455   -0.439280
N      1.285188   -0.521621    0.264205
C      3.130209    0.220423   -1.278086
C      4.393059    0.071291   -0.411354
C      5.543505   -0.355941   -1.278553
O      5.981968   -1.535420   -1.209893
O      6.107888    0.542382   -2.179863
N      4.720096    1.337893    0.248018
C     -3.532362   -1.362633   -0.869021
O     -3.642386   -1.095715   -2.094993
O     -4.291679   -2.406577   -0.341726
H     -4.160889   -0.702835    2.221796
H     -5.287476   -0.231713    0.879735
H     -4.820837    0.947497    2.159100
H     -4.131101    2.495571    0.418482
H     -4.450533    1.313298   -0.912315
H     -2.812642    2.060626   -0.704471
H     -1.873980   -0.061019   -0.714518
H     -1.181330   -2.149889    0.325934
H     -2.370464   -1.968342    1.640275
H     -0.186266   -1.272637    2.443605
H     -1.260995    0.157080    2.391760
H      1.531558    2.596469   -0.639037
H      1.528980   -1.536128    0.311475
H      3.253671    1.067705   -1.988277
H      2.976677   -0.703677   -1.877587
H      4.216986   -0.712021    0.362455
H      6.876623    0.264343   -2.778027
H      3.974033    1.551235    0.949001
H      5.596219    1.203333    0.804366
H     -4.271482   -2.652295    0.638948
