40

C     -1.935124    1.279182   -0.486453
N     -2.765018    0.293320    0.243780
C     -3.732355   -0.330582   -0.693148
C     -3.555528    1.033330    1.261953
C     -1.947869   -0.742061    0.968637
C     -0.704716   -1.377148    0.259325
C     -0.981776   -2.194559   -1.014021
C     -2.002446   -3.274515   -0.805162
O     -2.948292   -3.418206   -1.623440
O     -1.877549   -4.159351    0.259048
O      0.304280   -0.404766   -0.019346
C      1.131272    0.163938    0.956603
O      1.087784   -0.231453    2.153511
C      2.113766    1.217639    0.557645
C      3.389200    0.576256    0.004674
C      4.401601    1.644227   -0.418348
C      5.643757    1.003605   -0.959232
O      5.769837    0.825228   -2.199247
O      6.644459    0.562053   -0.098656
H     -1.410421    0.813427   -1.346899
H     -1.185065    1.746152    0.189151
H     -2.563168    2.096523   -0.907553
H     -3.240816   -0.733719   -1.595373
H     -4.469957    0.415625   -1.066237
H     -4.303538   -1.149212   -0.201726
H     -2.891466    1.571355    1.975893
H     -4.218145    1.796213    0.793373
H     -4.199488    0.339737    1.849063
H     -2.607505   -1.569158    1.315450
H     -1.549651   -0.305061    1.912411
H     -0.273222   -2.104299    0.985294
H     -1.256147   -1.534556   -1.859509
H     -0.034775   -2.689744   -1.319128
H      2.358603    1.850938    1.438421
H      1.650134    1.865176   -0.217952
H      3.132404   -0.055921   -0.874790
H      3.842914   -0.072995    0.786626
H      4.669726    2.278045    0.454538
H      3.954600    2.300662   -1.196979
H      6.559698    0.674678    0.904475
