45

C     -2.640292    0.290776   -3.008916
C     -2.294936    0.064841   -1.530907
C     -3.560843   -0.138158   -0.667645
C     -3.125982   -0.387016    0.789079
C     -2.179791    0.731435    1.266611
C     -1.029029    0.927107    0.255556
O     -1.527683    1.162632   -1.056934
O     -0.159437   -0.195088    0.282941
C      1.110651    0.112381   -0.273086
C      2.085284    0.495486    0.868695
C      3.521540   -0.006720    0.566498
O      3.606656   -1.421158    0.408152
C      2.451456   -2.043565   -0.142642
C      1.611823   -1.120344   -1.056513
O      2.386960   -0.704728   -2.153436
O      1.662654   -2.549554    0.904040
C      4.489797    0.404661    1.687420
O      5.783250   -0.064841    1.416301
O      2.083620    1.894384    1.019321
O     -1.665531    0.398984    2.530159
O     -4.238578   -0.522478    1.639908
O     -4.382163    1.001494   -0.744801
O     -3.243950    1.542180   -3.189802
H     -1.702247    0.245985   -3.607531
H     -3.319211   -0.516338   -3.364894
H     -1.693469   -0.872727   -1.502308
H     -4.105398   -1.039458   -1.039051
H     -2.569534   -1.351057    0.819570
H     -2.754943    1.684846    1.335817
H     -0.490691    1.846200    0.583242
H      1.054092    0.953904   -1.008134
H      1.740614    0.001600    1.810880
H      3.876962    0.477635   -0.370266
H      2.809848   -2.898763   -0.760951
H      0.729684   -1.687441   -1.437275
H      2.455121   -1.480732   -2.769862
H      1.044064   -3.215572    0.504148
H      4.150211   -0.036954    2.649551
H      4.510213    1.511584    1.808616
H      6.156232    0.522074    0.707737
H      2.080944    2.088024    1.992844
H     -1.269215    1.228216    2.905845
H     -4.674700    0.365541    1.721725
H     -5.319407    0.692203   -0.639559
H     -3.454647    1.608518   -4.157983
