20

C      2.879806    0.140569    0.306026
C      2.082481   -0.391267   -0.880971
C      0.847797   -1.117887   -0.418161
O      0.925138   -2.366783   -0.257896
C     -0.434780   -0.420532   -0.116700
C     -1.582865   -1.175178    0.199085
C     -2.795851   -0.542125    0.486228
C     -2.881854    0.850392    0.464561
C     -1.754551    1.613099    0.156510
C     -0.538150    0.986530   -0.132222
H      3.784318    0.669320   -0.061505
H      2.271024    0.852400    0.902016
H      3.200236   -0.698707    0.959735
H      1.818688    0.436909   -1.571191
H      2.726795   -1.091555   -1.456059
H     -1.546505   -2.257154    0.221330
H     -3.670492   -1.133129    0.725712
H     -3.821752    1.338584    0.687649
H     -1.822120    2.693363    0.143004
H      0.312639    1.613152   -0.357152
