23

C      3.222292    0.527515    0.225284
C      2.692900    0.546101   -1.068007
C      1.405054    0.055668   -1.305347
C      0.639617   -0.464264   -0.248037
C      1.175573   -0.471032    1.051075
C      2.463685    0.020754    1.284012
C     -0.761211   -0.963547   -0.499412
C     -1.780515    0.194713   -0.541246
C     -1.886245    0.874980    0.795297
O     -1.514960    2.072286    0.925053
O     -2.378927    0.179421    1.895867
N     -3.102638   -0.286935   -0.945493
H      4.218737    0.908725    0.407544
H      3.279411    0.943303   -1.886356
H      1.003109    0.082542   -2.310673
H      0.595687   -0.853153    1.882074
H      2.872720    0.011640    2.286042
H     -1.052683   -1.701553    0.280623
H     -0.779727   -1.504108   -1.471161
H     -1.440658    0.940288   -1.295905
H     -2.446162    0.623821    2.803605
H     -3.042563   -0.645008   -1.926629
H     -3.382496   -1.092159   -0.338209
