14

C      0.107277   -0.302322   -0.896931
C     -1.406593   -0.220984   -0.661154
C     -1.494606    0.049671    0.786622
O     -2.571813    0.272195    1.398222
O     -0.270206    0.031018    1.414169
C      0.767601   -0.282875    0.502250
C      1.870940    0.727734    0.594778
O      1.604843    1.951397    0.730473
O      3.194215    0.321249    0.481137
H      0.431170    0.564864   -1.515199
H      0.368558   -1.237294   -1.438993
H     -1.899824   -1.188208   -0.897218
H     -1.864372    0.606869   -1.244144
H      1.162811   -1.293313    0.745988
