22

C      1.357907   -1.559570    1.254730
C      0.761479   -1.166187   -0.105393
C     -0.443573   -0.240973   -0.023475
C     -1.370421   -0.242784   -1.083088
C     -2.477482    0.610388   -1.063310
C     -2.670138    1.482646    0.009265
C     -1.753906    1.506042    1.062293
C     -0.644476    0.655020    1.048344
C      1.821527   -0.603422   -1.026181
O      2.158630   -1.271884   -2.040321
C      2.484249    0.692749   -0.785787
O      2.191151    1.395920    0.216005
O      3.448314    1.149228   -1.676078
H      2.107913   -2.367435    1.115158
H      0.559445   -1.942535    1.925623
H      1.865801   -0.704233    1.745891
H      0.400733   -2.121766   -0.550668
H     -1.233361   -0.906267   -1.928255
H     -3.184858    0.597047   -1.882433
H     -3.527164    2.143558    0.022461
H     -1.901304    2.187626    1.890145
H      0.049536    0.706834    1.875073
