20

C     -0.247030   -0.387689    0.562399
C     -1.696826    0.065641    0.796331
C     -2.609464   -1.129365    0.868839
O     -2.806526   -1.846108   -0.148344
O     -3.228641   -1.457740    2.068307
N     -2.140207    0.986341   -0.258511
O      0.614495    0.723763    0.636325
N      1.867274    0.263622    0.376925
C      2.426861    0.366559   -0.935474
O      1.745935    0.857268   -1.875117
N      3.756512   -0.085600   -1.185574
H      0.029784   -1.128496    1.348047
H     -0.171681   -0.876891   -0.436738
H     -1.740716    0.596160    1.774547
H     -3.135317    1.263125   -0.091596
H     -1.555727    1.853433   -0.244195
H     -2.062209    0.536998   -1.200335
H      2.454691   -0.093536    1.164028
H      4.330875   -0.495869   -0.416392
H      4.167917   -0.011615   -2.142423
