40

C      2.954402   -1.974713   -2.102120
C      2.246297   -2.279713   -0.795395
C      2.717368   -3.351728    0.015361
C      2.206620   -3.528711    1.311059
C      1.234223   -2.664224    1.804719
C      0.699936   -1.653121    1.001739
C     -0.304265   -0.833614    1.528012
C     -0.889891    0.173802    0.759746
C     -0.512291    0.332573   -0.585452
C      0.497666   -0.495497   -1.133770
C      1.158228   -1.470410   -0.328752
O      0.807517   -0.359207   -2.483151
C     -1.177675    1.390818   -1.389907
O     -1.082117    1.391187   -2.647194
C     -1.961327    2.447669   -0.707485
C     -2.316107    2.266089    0.645689
C     -2.016273    0.976380    1.369159
C     -3.057245    3.255208    1.310850
C     -3.425375    4.430108    0.654796
C     -3.063354    4.621896   -0.681415
C     -2.334331    3.641537   -1.367879
O     -1.975465    3.862587   -2.697858
O     -4.154617    5.399969    1.339311
O      2.658536   -4.581733    2.108681
C      3.719687   -4.323815   -0.483295
O      3.544022   -4.893855   -1.592675
O      4.855694   -4.627405    0.263130
H      3.133414   -0.883824   -2.198270
H      2.355273   -2.352268   -2.956961
H      3.966661   -2.422403   -2.156969
H      0.867726   -2.808709    2.814933
H     -0.643553   -0.983606    2.547685
H     -2.934707    0.351321    1.367901
H     -1.761439    1.208959    2.427045
H     -3.356829    3.109385    2.341863
H     -3.348149    5.535447   -1.188265
H     -2.231578    4.713605   -3.184847
H     -4.438702    6.263600    0.891697
H      2.302370   -4.733362    3.045253
H      5.059653   -4.150223    1.133029
