23

C      2.245444    1.766439    0.124400
C      2.879578    0.864665    0.981853
C      2.385974   -0.435047    1.118197
C      1.255039   -0.837335    0.399831
C      0.605902    0.067400   -0.463087
C      1.115093    1.371263   -0.596636
C     -0.626023   -0.345512   -1.237307
C     -1.952368   -0.098736   -0.480208
C     -2.033560   -0.907251    0.790410
O     -1.692533   -0.402704    1.893487
O     -2.437265   -2.238809    0.750040
N     -2.185507    1.324348   -0.212077
F      0.799675   -2.107902    0.542232
H      2.629593    2.772764    0.018522
H      3.754750    1.172348    1.539408
H      2.882025   -1.132236    1.781160
H      0.633596    2.082778   -1.256060
H     -0.656156    0.202104   -2.204824
H     -0.555500   -1.422676   -1.504626
H     -2.775214   -0.448581   -1.141909
H     -2.690581   -2.684249   -0.123741
H     -2.154764    1.848022   -1.117054
H     -1.427197    1.705611    0.397989
