49

C     -2.761315    1.378539    1.858228
C     -2.816403    1.008547    0.365772
C     -3.570171   -0.333948    0.129571
C     -3.078795   -0.972500   -1.183934
C     -1.540051   -1.185277   -1.142602
C     -0.853970   -0.195858   -0.164001
O     -1.513973    1.055453   -0.212272
O      0.497932    0.010617   -0.540812
C      1.363545   -0.965908    0.023290
C      2.601162   -1.157659   -0.883197
C      3.740136   -0.159054   -0.543387
C      3.179976    1.083632    0.168942
C      2.415559    0.639949    1.448707
O      1.739978   -0.613780    1.345770
C      1.451939    1.731301    1.945197
O      0.874576    1.359524    3.167555
O      4.238722    1.939876    0.519816
N      4.477948    0.218830   -1.757429
O      3.074498   -2.473911   -0.743708
O     -1.009254   -1.020058   -2.433773
N     -3.771762   -2.242604   -1.443924
O     -4.953811   -0.100110    0.054928
O     -2.062723    2.579779    2.044204
H     -2.247580    0.579447    2.431509
H     -3.791888    1.472858    2.269142
H     -3.404403    1.805404   -0.141173
H     -3.352988   -1.048792    0.959714
H     -3.318721   -0.264194   -2.011335
H     -1.316206   -2.214981   -0.776589
H     -0.913660   -0.599857    0.877807
H      0.857536   -1.958039    0.072995
H      2.261590   -1.004825   -1.935708
H      4.450547   -0.655042    0.159147
H      2.487557    1.607149   -0.533427
H      3.180469    0.508187    2.246453
H      0.663423    1.941256    1.190858
H      2.013241    2.675655    2.105138
H      0.163005    0.701253    2.958104
H      3.866733    2.858675    0.567565
H      5.303410    0.810103   -1.507269
H      4.832168   -0.638218   -2.240538
H      3.860592    0.751575   -2.412880
H      3.628958   -2.668496   -1.543700
H     -1.173971   -1.867014   -2.924258
H     -3.412610   -2.669623   -2.328360
H     -4.797161   -2.074854   -1.562120
H     -3.623065   -2.912421   -0.653604
H     -5.284645   -0.028068    0.988124
H     -2.656070    3.307481    1.721466
