47

C     -0.142526   -1.421443   -1.113959
C     -0.647112   -2.129542    0.155571
C     -2.160797   -2.409057    0.123119
C     -3.051194   -1.159229   -0.005441
C     -2.904855   -0.194697    1.184093
C     -3.868293    1.000090    1.096031
C     -5.315012    0.622304    1.448500
C     -6.216600    1.859660    1.468434
O     -7.538884    1.491506    1.752360
C      1.390971   -1.411899   -1.218090
C      2.046195   -0.488772   -0.175607
C      3.576371   -0.432231   -0.317491
C      4.027769    0.485619   -1.466993
C      5.554159    0.476109   -1.671557
C      6.352850    1.108364   -0.520485
C      6.021778    2.557594   -0.337785
O      5.273119    2.922906    0.606441
O      6.514514    3.501251   -1.230145
H     -0.516012   -0.375298   -1.142490
H     -0.543828   -1.950551   -2.005968
H     -0.395442   -1.534830    1.057258
H     -0.127839   -3.107679    0.255197
H     -2.380771   -3.087928   -0.729614
H     -2.439908   -2.955452    1.050424
H     -4.101447   -1.512421   -0.066031
H     -2.832568   -0.627810   -0.955738
H     -1.872161    0.213627    1.191557
H     -3.061943   -0.738854    2.141080
H     -3.519044    1.775178    1.813378
H     -3.828167    1.443730    0.076830
H     -5.340850    0.139328    2.449780
H     -5.715951   -0.093465    0.700529
H     -5.851178    2.594406    2.222132
H     -6.194744    2.349999    0.471735
H     -7.579545    1.307701    2.727258
H      1.653572   -1.063580   -2.238468
H      1.781903   -2.446995   -1.107003
H      1.621071    0.536361   -0.248712
H      1.817941   -0.875577    0.840112
H      3.981781   -1.457691   -0.461871
H      3.984911   -0.039026    0.637170
H      3.672537    1.522644   -1.285168
H      3.566507    0.142727   -2.416135
H      5.788878    1.022870   -2.611258
H      5.897257   -0.571890   -1.813397
H      6.186955    0.551772    0.425620
H      7.435629    1.025454   -0.755204
