44

C     -3.901398   -1.570292   -1.868036
C     -2.692568   -0.982355   -1.125317
C     -2.913214    0.498470   -0.734568
C     -1.754849    1.003790    0.094189
O     -0.775845    1.569550   -0.465246
N     -1.736568    0.773277    1.510835
C     -0.548865    1.047278    2.323511
C     -0.900289    1.034263    3.814354
C      0.513832    0.024560    2.020212
O      0.328282   -1.181697    2.340709
N      1.706338    0.409121    1.321154
C      2.718390   -0.569346    0.909711
C      3.528758   -0.047797   -0.288391
C      2.649064    0.164922   -1.485030
C      2.140344    1.365559   -1.926637
N      1.347057    1.142310   -2.993418
C      1.391317   -0.196112   -3.169183
N      2.169798   -0.817058   -2.263560
C      3.638802   -0.864953    2.062248
O      4.089360    0.076028    2.768402
O      4.036244   -2.170940    2.334830
N     -3.143808    1.339639   -1.915319
O     -1.509433   -1.152238   -1.868317
H     -3.717438   -2.642300   -2.092574
H     -4.079991   -1.033305   -2.823716
H     -4.812424   -1.494765   -1.236971
H     -2.579327   -1.566144   -0.184970
H     -3.828126    0.547574   -0.102442
H     -2.572446    0.328657    1.954921
H     -0.174450    2.066902    2.084112
H     -1.307286    0.045388    4.117008
H     -1.663431    1.812781    4.027427
H      0.003933    1.253904    4.421660
H      1.873324    1.424120    1.134172
H      2.213193   -1.510686    0.597205
H      4.313926   -0.787900   -0.557063
H      4.037742    0.905162   -0.023167
H      2.323890    2.340594   -1.495083
H      0.850455   -0.714152   -3.950019
H      2.350454   -1.842131   -2.181068
H      3.710608   -2.948741    1.773643
H     -2.269855    1.414806   -2.484466
H     -3.386318    2.304975   -1.593025
H     -1.667180   -0.800717   -2.782715
