40

C     -2.592995    0.267410   -2.558911
C     -1.969561   -0.054885   -1.237051
C     -2.578090   -0.862861   -0.328211
C     -1.838546   -1.100143    0.955069
C     -2.345753   -1.830957    1.944940
C     -0.454938   -0.440429    1.036808
C      0.218218   -0.757480   -0.327362
C     -0.564859    0.469623   -0.878880
C     -0.574135    1.044685    0.563650
C      0.700603    1.930423    0.786240
C      1.890906    1.272757    1.494628
C      2.455512   -0.047607    0.914943
C      1.797883   -0.687694   -0.352202
C      2.311021   -2.149641   -0.420139
C      2.322925    0.015229   -1.627945
C     -1.831053    1.848610    1.011562
H     -3.639214   -0.101733   -2.616543
H     -2.597594    1.367570   -2.705643
H     -1.999714   -0.204044   -3.369724
H     -3.556016   -1.292578   -0.508158
H     -3.325369   -2.282318    1.852111
H     -1.787032   -1.984682    2.859116
H      0.106292   -0.656003    1.968707
H     -0.124916   -1.713300   -0.795921
H     -0.097966    1.085612   -1.674162
H      1.039935    2.385425   -0.166010
H      0.438895    2.813484    1.410938
H      1.606850    1.106774    2.557674
H      2.714486    2.020055    1.524856
H      3.540618    0.101537    0.714754
H      2.434950   -0.791297    1.743512
H      1.983093   -2.644326   -1.360692
H      1.918629   -2.742905    0.434656
H      3.422006   -2.187771   -0.385660
H      2.188239    1.111854   -1.584795
H      1.803684   -0.374293   -2.530259
H      3.412908   -0.161802   -1.757423
H     -1.880561    2.802461    0.444477
H     -1.747793    2.085827    2.093360
H     -2.801551    1.339415    0.873695
