41

C     -4.708627    1.933984   -1.884333
C     -4.741232    0.824414   -0.824704
C     -3.646973    0.958714    0.272015
C     -2.263593    0.526858   -0.170043
O     -1.886705    0.708351   -1.359142
N     -1.357988   -0.035991    0.790297
C     -0.065055   -0.611318    0.410798
C      0.947995   -0.423585    1.554234
C      2.325189   -0.868530    1.151664
C      2.910853   -2.102210    1.423920
N      4.122827   -2.189897    0.829561
C      4.300880   -1.029173    0.174540
C      5.392325   -0.660497   -0.611520
C      5.361632    0.603468   -1.229253
C      4.252015    1.459608   -1.052137
C      3.161707    1.058946   -0.257925
C      3.223328   -0.197965    0.344852
C     -0.241090   -2.066676    0.076722
O     -0.850619   -2.833495    0.871746
O      0.301786   -2.576585   -1.099106
N     -3.614908    2.314583    0.828592
O     -4.646370   -0.423721   -1.463268
H     -3.734366    1.971094   -2.410783
H     -4.911536    2.923111   -1.421156
H     -5.502324    1.747037   -2.639570
H     -5.735407    0.898190   -0.324125
H     -3.955374    0.266960    1.088278
H     -1.691298   -0.160800    1.774354
H      0.325990   -0.080141   -0.485800
H      0.621607   -0.990937    2.453301
H      0.988671    0.650891    1.836120
H      2.464384   -2.897916    2.006050
H      4.775018   -3.005321    0.857988
H      6.235500   -1.325113   -0.745761
H      6.193492    0.922238   -1.845707
H      4.240991    2.431368   -1.529692
H      2.306764    1.707840   -0.120951
H      0.205057   -3.558151   -1.333189
H     -3.075380    2.290988    1.724882
H     -3.091476    2.946411    0.178966
H     -4.937691   -1.107031   -0.804126
