21

C      0.304816    1.161462    0.604929
C     -1.029762    0.723149   -0.004638
C     -1.286213   -0.749902    0.351079
C     -0.074491   -1.601754   -0.056218
O      1.114717   -1.159106    0.580989
C      1.456980    0.184171    0.236798
C      1.853962    0.280992   -1.222385
O      1.669192    1.342504   -1.875756
O      2.519589   -0.778577   -1.827414
O      2.592489    0.553226    0.977383
O     -2.457522   -1.224434   -0.265149
O     -2.057042    1.531632    0.507184
H      0.547756    2.195946    0.276953
H      0.195011    1.189291    1.712270
H     -0.970031    0.842881   -1.112348
H     -1.418570   -0.836879    1.452412
H      0.043804   -1.620404   -1.161904
H     -0.262652   -2.650041    0.258192
H      2.421054    0.318891    1.927454
H     -2.335157   -1.146259   -1.247674
H     -2.827930    1.443210   -0.112157
