11

C      0.501563    0.037102    0.548262
C     -0.516473   -0.163950   -0.509785
O     -0.141454   -1.203077    0.364737
C     -1.882904    0.342709   -0.190747
O     -2.097041    1.581547   -0.130989
O     -2.930147   -0.549039    0.002195
C      1.920995   -0.018694    0.092519
O      2.389538    0.905166   -0.622390
O      2.739821   -1.068715    0.487708
H      0.225748    0.508621    1.515499
H     -0.209646   -0.371670   -1.557010
