40

C     -4.316850    0.021737    1.303386
C     -3.707097    1.432890    1.332951
C     -2.621757    1.669430    0.249746
C     -1.438821    0.742823    0.410703
O     -0.439888    1.134104    1.074233
N     -1.452822   -0.578566   -0.154745
C     -0.326800   -1.502142    0.008810
C     -0.728268   -2.921650   -0.400767
C      0.841586   -1.034923   -0.816783
O      0.692795   -0.847424   -2.055628
N      2.114780   -0.800859   -0.197951
C      3.277797   -0.324045   -0.953404
C      4.213540    0.494552   -0.049643
C      3.525788    1.721501    0.465850
O      3.507631    2.773485   -0.227580
O      2.868535    1.685095    1.691663
C      4.019915   -1.495172   -1.537289
O      4.226570   -2.524060   -0.840134
O      4.524031   -1.439315   -2.833718
N     -3.192719    1.539800   -1.093356
O     -3.212704    1.736562    2.614337
H     -3.561016   -0.746261    1.570042
H     -5.146761   -0.039123    2.038819
H     -4.727210   -0.204307    0.296740
H     -4.536504    2.145742    1.131889
H     -2.255071    2.715422    0.369279
H     -2.295871   -0.888921   -0.689433
H     -0.044453   -1.533824    1.084252
H     -1.576703   -3.268529    0.226792
H     -1.037989   -2.951441   -1.467720
H      0.125116   -3.617802   -0.252796
H      2.240282   -1.068202    0.805101
H      2.937275    0.336767   -1.781789
H      4.555452   -0.123119    0.809625
H      5.114544    0.802275   -0.625033
H      2.380897    2.500030    2.044094
H      4.396869   -0.618579   -3.413566
H     -2.449814    1.776268   -1.791449
H     -3.936988    2.265790   -1.208884
H     -2.557297    1.033991    2.863354
