25

C      2.456496    0.122062   -0.670405
C      1.512036    0.029612    0.534408
C      1.856200    1.037473    1.604888
O      1.438203    0.865093    2.780099
O      2.591411    2.179254    1.304616
N      0.099279    0.171554    0.095389
C     -0.757075   -0.913996   -0.001017
C     -2.091212   -0.707119   -0.411213
C     -2.530089    0.565786   -0.753919
C     -1.651408    1.637297   -0.697078
C     -0.337700    1.420940   -0.276327
O     -2.087634    2.910165   -1.058431
C     -0.291411   -2.323551    0.336588
O     -1.237768   -3.304174   -0.001370
H      2.203571   -0.670706   -1.405966
H      2.369280    1.109507   -1.171255
H      3.508703   -0.025008   -0.345104
H      1.699469   -0.955563    1.003635
H     -2.799331   -1.521973   -0.478447
H     -3.553373    0.717090   -1.073915
H      0.334665    2.269835   -0.246288
H     -1.468339    3.711633   -1.026691
H      0.630319   -2.544429   -0.241255
H     -0.046659   -2.385268    1.421975
H     -1.847635   -3.395513    0.777082
