35

C      2.366579   -0.771402   -0.853698
C      1.322052   -0.389972    0.174879
C      2.075332    0.487993    1.182529
N      3.509249    0.428657    0.879004
C      3.672673   -0.660009   -0.087130
C      4.858716   -0.447546   -0.991393
O      4.912093    0.555343   -1.753969
O      5.904524   -1.365235   -0.982774
O      0.268766    0.324135   -0.449743
C     -0.922939    0.246426    0.313109
C     -1.729124   -1.004405   -0.035322
C     -3.162928   -0.558848    0.190948
C     -3.067853    0.978563    0.235828
O     -1.726854    1.361514    0.015417
C     -3.959126    1.644653   -0.821482
O     -5.309970    1.342529   -0.595687
O     -3.681429   -1.075749    1.394076
O     -1.524658   -1.406288   -1.370618
H      2.346363   -0.050977   -1.702601
H      2.205391   -1.801978   -1.239385
H      0.973327   -1.327879    0.671618
H      1.906173    0.107908    2.212898
H      1.712497    1.540856    1.144671
H      3.772076    1.338510    0.429816
H      3.829245   -1.604759    0.481236
H      6.710870   -1.239744   -1.583002
H     -0.716500    0.268608    1.411964
H     -1.451906   -1.848156    0.634088
H     -3.811550   -0.914446   -0.640920
H     -3.375682    1.360018    1.235631
H     -3.806119    2.747866   -0.803040
H     -3.674191    1.284595   -1.833343
H     -5.597540    1.889964    0.181042
H     -3.077896   -0.800977    2.134116
H     -1.749659   -0.639768   -1.961658
