40

C     -3.085441    3.255244    1.278760
O     -1.909746    2.594653    0.864258
C     -2.137527    1.864557   -0.331748
C     -0.872361    1.914652   -1.191894
C      0.250605    1.077127   -0.643532
C      0.032530    0.003496    0.255947
C      1.171561   -0.701893    0.717940
O      1.038640   -1.622082    1.570781
C      2.453650   -0.371386    0.232076
C      3.632097   -1.053155    0.628091
C      4.872207   -0.662864    0.100922
C      4.954943    0.390715   -0.809557
C      3.801044    1.067174   -1.202923
C      2.555411    0.694436   -0.688532
O      1.475091    1.357635   -1.073788
O      3.580897   -2.112350    1.535275
C     -1.373654   -0.294285    0.814712
C     -2.488604    0.393727   -0.023377
O     -2.697750   -0.302004   -1.230480
C     -1.663014   -1.786109    0.827745
O     -2.374549   -2.281947    1.745053
O     -1.194809   -2.593375   -0.215434
C     -1.441736   -3.992531   -0.272189
O     -1.456132    0.213075    2.129003
H     -2.894076    3.734880    2.260386
H     -3.360963    4.056922    0.558826
H     -3.930312    2.544258    1.410202
H     -2.956884    2.308105   -0.949834
H     -0.535039    2.970391   -1.279762
H     -1.103852    1.556877   -2.218551
H      5.776432   -1.178997    0.397782
H      5.916484    0.684102   -1.210739
H      3.874467    1.885101   -1.908796
H      4.416432   -2.607404    1.824731
H     -3.432020    0.367002    0.571683
H     -3.584856   -0.020657   -1.576717
H     -1.005953   -4.491298    0.619307
H     -0.968429   -4.409119   -1.184765
H     -2.534871   -4.184127   -0.313722
H     -0.799912   -0.268547    2.697049
