45

C     -3.173942    1.350134   -1.672050
C     -2.528601    0.162519   -0.946526
C     -3.402530   -0.321942    0.235821
C     -2.680021   -1.463431    0.979617
C     -1.233822   -1.054871    1.313647
C     -0.537715   -0.549362    0.039921
O     -1.246424    0.559226   -0.489670
O      0.774712   -0.145237    0.381320
C      1.588713    0.042086   -0.770549
C      2.416190    1.358509   -0.648624
O      3.701170    1.212605   -0.043607
C      3.767223    0.192349    0.939390
C      3.480244   -1.211838    0.341693
C      2.573652   -1.129337   -0.903897
O      1.886615   -2.343065   -1.066385
O      4.695259   -1.828243   -0.001895
O      2.899354    0.484352    2.006911
C      1.643697    2.521864    0.001740
O      0.499225    2.839591   -0.743914
O     -1.220902   -0.038493    2.285798
O     -3.363654   -1.785321    2.164051
O     -4.637995   -0.781302   -0.251393
O     -3.274548    2.452642   -0.812477
H     -4.183013    1.066478   -2.046250
H     -2.543377    1.620382   -2.548770
H     -2.435194   -0.658458   -1.696493
H     -3.557122    0.529673    0.941082
H     -2.636352   -2.359953    0.314707
H     -0.678370   -1.948649    1.685372
H     -0.500603   -1.391828   -0.693602
H      0.994251    0.114026   -1.715254
H      2.625416    1.681148   -1.693041
H      4.809412    0.198567    1.335193
H      2.972259   -1.824224    1.124730
H      3.216025   -0.947184   -1.799444
H      1.539780   -2.353610   -1.996729
H      4.504232   -2.795700   -0.118915
H      3.187926   -0.073473    2.776024
H      2.306180    3.414204    0.077460
H      1.333230    2.258801    1.033468
H      0.809329    3.333383   -1.547339
H     -1.295028   -0.482918    3.170345
H     -4.109623   -2.390351    1.913045
H     -5.292602   -0.692552    0.489611
H     -3.692654    3.178800   -1.344124
