43

C      4.405619    0.594578   -1.424652
C      3.912915   -0.446666   -0.407711
C      2.383754   -0.465935   -0.334293
C      1.736682   -1.556273   -0.929849
C      0.355338   -1.670110   -0.926246
C     -0.461704   -0.694262   -0.337273
C      0.159339    0.445238    0.262569
C     -0.598794    1.483232    0.854662
C      0.016837    2.584917    1.440910
C      1.399211    2.687545    1.451802
C      2.179025    1.691794    0.872053
C      1.589672    0.557377    0.266045
C     -1.972306   -0.955621   -0.362621
C     -2.765815    0.110093   -1.169134
C     -4.143259    0.416392   -0.559385
C     -4.835388   -0.869839   -0.097656
C     -4.036398   -1.612593    0.995128
C     -2.542532   -1.234708    1.046485
C      4.550243   -0.363159    0.964451
O      4.190176   -1.180855    1.852441
O      5.548963    0.560317    1.277112
H      5.499875    0.486668   -1.582930
H      3.908866    0.425127   -2.404047
H      4.189550    1.632824   -1.105120
H      4.267215   -1.422035   -0.810072
H      2.307720   -2.343796   -1.406637
H     -0.077589   -2.546334   -1.393428
H     -1.673679    1.479692    0.866463
H     -0.584635    3.366929    1.886804
H      1.871928    3.547373    1.909340
H      3.244018    1.836280    0.913049
H     -2.150720   -1.909766   -0.910909
H     -2.202524    1.058549   -1.285939
H     -2.917178   -0.268885   -2.204547
H     -4.031438    1.106551    0.304847
H     -4.775961    0.926285   -1.317665
H     -5.849055   -0.624355    0.286669
H     -4.967621   -1.538933   -0.976631
H     -4.129458   -2.707056    0.821447
H     -4.488367   -1.402081    1.989080
H     -1.977624   -2.070787    1.514324
H     -2.425684   -0.361810    1.716051
H      5.890786    1.248098    0.619396
