50

C     -4.589674    2.756089    2.473905
O     -5.454151    1.822588    1.834211
C     -5.032575    0.826517    0.938073
C     -3.679474    0.670014    0.582323
C     -3.284267   -0.340979   -0.312758
C     -4.261914   -1.175985   -0.872289
C     -5.617472   -1.031647   -0.525723
C     -5.996008   -0.032965    0.381114
O     -7.344790    0.095063    0.717354
O     -6.617218   -1.860044   -1.060458
C     -6.382320   -2.913206   -1.989672
C     -1.870061   -0.532056   -0.720376
C     -0.824122   -0.143372    0.022909
C      0.568139   -0.358064   -0.403629
O      0.825202   -0.912086   -1.508156
O      1.601544    0.054689    0.445399
C      2.992904   -0.023972    0.117826
C      3.822070   -0.237420    1.415852
C      5.254360    0.342082    1.329791
C      5.834499    0.332997   -0.100622
C      4.941336    1.223048   -1.021686
C      3.438691    1.253136   -0.628979
O      2.640474    1.487199   -1.761844
C      5.952902   -1.099897   -0.598980
O      6.615084   -1.938947    0.069968
O      5.369029   -1.497431   -1.799743
O      7.127242    0.887438   -0.040559
O      3.174484    0.346275    2.519762
H     -3.842920    2.220380    3.097333
H     -5.192163    3.416112    3.130926
H     -4.076617    3.383810    1.715023
H     -2.943353    1.350839    0.981859
H     -3.958561   -1.944784   -1.570884
H     -7.677326    0.798116    1.366215
H     -5.708478   -3.674127   -1.542285
H     -5.936626   -2.507379   -2.922347
H     -7.348206   -3.397843   -2.239716
H     -1.686513   -1.056686   -1.651163
H     -0.975238    0.323274    0.986414
H      3.162554   -0.904073   -0.540387
H      3.916845   -1.337885    1.580784
H      5.246028    1.394770    1.693398
H      5.920512   -0.222037    2.019810
H      5.310453    2.271910   -0.973481
H      5.067516    0.924340   -2.084552
H      3.283466    2.109091    0.065171
H      2.766506    0.719792   -2.379246
H      5.456500   -2.450825   -2.130388
H      7.493996    0.901123   -0.964385
H      2.517712   -0.316983    2.858886
