31

C     -3.149758   -1.363627   -0.843471
N     -4.015230   -0.300193   -0.901390
C     -3.686183    0.915807   -0.370725
C     -2.439673    1.038815    0.232393
C     -1.604814   -0.023817    0.277372
N     -1.926126   -1.230833   -0.247955
N     -0.469724    0.322809    0.894156
C     -0.662258    1.629235    1.217038
N     -1.873891    2.109553    0.821238
C      0.696461   -0.525292    1.152886
C      1.509089   -0.779059   -0.104679
C      2.576313    0.003892    0.644236
O      1.741590    0.200851    1.764041
C      2.943300    1.341589   -0.011417
O      3.625806    1.123233   -1.215952
C      1.852262   -2.255225   -0.372109
O      2.378558   -2.891519    0.765449
N     -4.599377    2.010858   -0.441589
H     -3.437361   -2.313575   -1.272357
H      0.069766    2.234927    1.735228
H      0.427060   -1.427891    1.744019
H      1.111622   -0.258886   -1.005681
H      3.478129   -0.587339    0.920409
H      3.573704    1.937987    0.685949
H      2.025531    1.931506   -0.222114
H      4.540481    0.822838   -0.973265
H      2.611797   -2.297142   -1.180711
H      0.942126   -2.780259   -0.744975
H      1.644057   -3.421292    1.171561
H     -4.354259    2.942530   -0.038560
H     -5.529001    1.889520   -0.901057
