27

C     -4.634442   -0.118946    0.335540
C     -4.011642    1.043124    0.797364
C     -2.626222    1.190923    0.678888
C     -1.849123    0.171077    0.100205
C     -2.487383   -0.992040   -0.368011
C     -3.873224   -1.134708   -0.247869
C     -0.379359    0.333749   -0.032855
C      0.148173    1.523476   -0.560498
O      1.459256    1.689019   -0.695011
C      2.339535    0.758032   -0.344727
C      3.707340    0.998814   -0.516453
C      4.642727    0.027686   -0.149141
C      4.216571   -1.188281    0.391966
C      2.852635   -1.440650    0.568622
C      1.901674   -0.470290    0.200554
C      0.520389   -0.675618    0.361276
O      0.091555   -1.747124    0.872776
H     -5.707031   -0.231161    0.427311
H     -4.602473    1.829775    1.248592
H     -2.159108    2.094794    1.050101
H     -1.916650   -1.781419   -0.840997
H     -4.357718   -2.031622   -0.611633
H     -0.512127    2.321914   -0.874111
H      4.045595    1.938795   -0.934128
H      5.699717    0.217927   -0.283556
H      4.945020   -1.937010    0.675391
H      2.546316   -2.390239    0.989942
