38

C     -3.089477   -2.121242    0.266582
C     -1.902374   -2.762687   -0.458515
N     -0.665791   -2.046650   -0.074254
C      0.254820   -1.820587   -1.214117
C      1.299013   -0.785477   -0.870863
C      2.650121   -0.953167   -1.238279
C      3.533387    0.080938   -0.945443
C      3.127729    1.226526   -0.340851
C      1.802830    1.441137    0.028188
C      0.870895    0.407947   -0.230974
C     -0.607137    0.504631    0.072456
C     -1.058623   -0.838299    0.682884
C     -2.528392   -0.857668    0.784324
C     -3.247015    0.227245    1.116936
C     -2.605562    1.603779    1.264196
C     -1.055651    1.641870    1.026494
O     -0.380310    1.527452    2.255047
O     -3.246717    2.505202    0.397859
O      4.209114    2.072447   -0.186607
C      5.365534    1.417473   -0.726257
O      4.889290    0.150441   -1.200888
H     -3.924057   -1.927358   -0.442382
H     -3.438103   -2.753574    1.111130
H     -1.812171   -3.830971   -0.167767
H     -2.085637   -2.720836   -1.556039
H      0.739410   -2.785109   -1.479090
H     -0.299418   -1.454872   -2.107091
H      2.995529   -1.848247   -1.739398
H      1.520982    2.374739    0.493425
H     -1.124615    0.656402   -0.902783
H     -0.640033   -0.937721    1.708864
H     -4.330347    0.156787    1.153794
H     -2.814763    1.948732    2.299433
H     -0.792939    2.616783    0.552136
H     -0.436821    2.414246    2.697959
H     -3.082398    2.192917   -0.530761
H      5.783311    2.009274   -1.567518
H      6.126386    1.267497    0.068171
