48

C      3.034325   -0.542773   -1.542150
C      4.043545   -0.327740   -0.403950
C      3.630290    0.880409    0.468664
C      2.202425    0.682696    1.022233
C      1.181351    0.459459   -0.111637
C      1.605635   -0.738109   -0.993948
N      0.659330   -0.911739   -2.098252
O     -0.074480    0.181838    0.495345
C     -1.158188    0.921836   -0.062595
C     -2.141876    1.381479    1.045715
C     -3.353778    0.419302    1.199628
C     -2.981233   -1.034240    0.840148
C     -2.235991   -1.116221   -0.530445
O     -1.845478    0.155054   -1.037945
C     -3.049162   -1.864698   -1.610072
N     -4.253899   -1.147145   -2.029201
O     -2.157568   -1.575552    1.843781
O     -4.400275    0.839681    0.361663
N     -1.440518    1.583792    2.319312
O      1.819043    1.818459    1.756437
O      4.536055    1.006879    1.536960
N      5.382459   -0.143604   -0.970634
H      3.331136   -1.444161   -2.123671
H      3.057154    0.332081   -2.230885
H      4.055421   -1.244858    0.229621
H      3.650880    1.802872   -0.161801
H      2.192318   -0.219242    1.682635
H      1.192648    1.377301   -0.745559
H      1.586862   -1.660947   -0.369962
H      0.727146   -0.095633   -2.749874
H      0.921669   -1.769830   -2.636797
H     -0.821763    1.860858   -0.557389
H     -2.544099    2.374812    0.736135
H     -3.718034    0.433828    2.255122
H     -3.919491   -1.636331    0.800374
H     -1.323091   -1.740312   -0.394496
H     -2.402833   -2.017078   -2.501606
H     -3.331914   -2.873988   -1.237804
H     -4.939741   -1.126488   -1.241054
H     -4.010099   -0.162198   -2.281927
H     -2.738600   -1.771982    2.624598
H     -4.841193    1.607301    0.809035
H     -1.229332    0.658243    2.755666
H     -2.079446    2.093710    2.973464
H      2.139033    1.686518    2.687778
H      4.523658    1.960780    1.817701
H      5.437083    0.788019   -1.445380
H      6.082617   -0.142337   -0.192981
