33

C      4.069252   -0.104052    0.072973
C      3.183887    0.394498   -1.065855
C      2.468728   -0.748442   -1.739664
C      1.338931   -1.323692   -1.285927
C      0.574410   -0.884737   -0.059102
C     -0.748524   -0.189160   -0.436269
C     -1.569047    0.180176    0.823887
C     -1.270412    1.669941    1.092248
C     -0.884673    2.294560   -0.243781
C     -0.505509    1.133708   -1.081769
O     -0.075077    1.254336   -2.218324
C     -3.083285   -0.042581    0.613432
C     -3.415656   -1.500964    0.517456
O     -3.769782   -1.998641   -0.584754
O     -3.318683   -2.309223    1.645809
H      4.584811    0.758059    0.545975
H      3.468647   -0.624735    0.847166
H      4.837150   -0.804813   -0.318997
H      2.464870    1.157022   -0.698973
H      3.832928    0.894594   -1.816325
H      2.891657   -1.122706   -2.667626
H      0.907552   -2.127627   -1.875600
H      0.341191   -1.800216    0.525975
H      1.173096   -0.228223    0.604591
H     -1.327251   -0.841773   -1.126770
H     -1.251781   -0.414888    1.710851
H     -2.126604    2.208659    1.554001
H     -0.404499    1.743402    1.787442
H     -1.752675    2.817570   -0.699669
H     -0.029122    2.994027   -0.126296
H     -3.644949    0.374783    1.476884
H     -3.427213    0.489283   -0.301433
H     -3.532369   -3.298146    1.596190
