32

C      4.474702    0.421149   -0.928219
C      3.048103   -0.062053   -0.687066
C      2.856215   -0.508353    0.741912
C      1.689389   -0.969121    1.227964
C      0.408426   -1.055256    0.432484
C     -0.364985    0.284417    0.436993
C     -1.570471    0.368463   -0.538911
C     -2.555421    1.333268    0.158433
C     -2.353808    1.149109    1.658632
C     -0.977378    0.610022    1.760074
O     -0.388746    0.503289    2.824923
C     -2.252049   -0.994221   -0.835677
C     -3.364158   -0.856969   -1.832218
O     -4.558708   -1.044037   -1.480563
O     -3.080323   -0.516967   -3.148958
H      4.585221    0.741579   -1.985675
H      4.705132    1.285423   -0.269062
H      5.198355   -0.397825   -0.727786
H      2.841529   -0.911710   -1.372432
H      2.350105    0.767450   -0.923293
H      3.707594   -0.482285    1.417511
H      1.662877   -1.303538    2.261147
H     -0.223839   -1.853020    0.879314
H      0.641208   -1.360361   -0.608924
H      0.336725    1.109824    0.188144
H     -1.228604    0.809404   -1.502434
H     -2.288393    2.378100   -0.116630
H     -3.617508    1.169749   -0.121517
H     -2.443639    2.118993    2.193688
H     -3.076481    0.411347    2.068724
H     -2.638586   -1.442739    0.106078
H     -1.522482   -1.703132   -1.276659
