37

C     -5.995125    0.395442   -2.336199
O     -5.944216   -0.546412   -1.269471
C     -4.805035   -0.805949   -0.491157
C     -4.898101   -1.761516    0.529155
C     -3.785475   -2.043814    1.330292
C     -2.575001   -1.381754    1.116619
C     -2.456643   -0.429389    0.086595
C     -3.581917   -0.139209   -0.703451
C     -1.196046    0.309798   -0.173062
C      0.014388   -0.128164    0.201987
C      1.246726    0.625320   -0.081891
O      1.200924    1.736680   -0.678953
O      2.473708    0.087324    0.322301
C      3.726611    0.742763    0.116413
C      4.867574   -0.251485    0.394586
C      6.207299    0.365855    0.098362
O      6.575499    0.542703   -1.094248
O      7.028217    0.772636    1.145484
O      4.690027   -1.393702   -0.402864
C      3.827421    1.944207    1.016838
O      3.524570    1.850413    2.236863
O      4.284947    3.154859    0.506338
O     -6.104891   -2.425364    0.743814
H     -5.268849    0.115184   -3.128159
H     -7.014720    0.393429   -2.772954
H     -5.773385    1.415122   -1.956323
H     -3.860268   -2.773614    2.126553
H     -1.748097   -1.604187    1.776341
H     -3.496120    0.600960   -1.488222
H     -1.268015    1.234116   -0.734981
H      0.125752   -1.076015    0.709505
H      3.791523    1.071455   -0.945789
H      4.829618   -0.543923    1.470657
H      7.927298    1.202453    0.963785
H      5.265151   -2.105765   -0.017169
H      4.369957    3.970341    1.101168
H     -6.205308   -3.120797    1.474035
