33

C      4.139746    1.257960    0.864396
C      5.491573    0.962082    0.665840
C      5.864974   -0.109426   -0.149406
C      4.878486   -0.884379   -0.771526
C      3.525021   -0.592415   -0.574978
C      3.140042    0.478114    0.258171
C      1.719498    0.838238    0.491289
C      0.697099   -0.011021    0.314874
C     -0.700623    0.376970    0.565674
O     -0.987206    1.546172    0.945657
O     -1.707475   -0.577302    0.381005
C     -3.100662   -0.299837    0.537135
C     -3.627049    0.493367   -0.678244
C     -5.070373    0.875189   -0.491899
O     -5.365584    1.945232    0.104658
O     -6.081517    0.027520   -0.935725
O     -3.471492   -0.264203   -1.851150
C     -3.837441   -1.598332    0.710959
O     -3.546361   -2.595979   -0.002669
O     -4.869909   -1.688467    1.639523
O      7.215751   -0.392986   -0.337905
H      3.873594    2.093561    1.500502
H      6.249988    1.567596    1.145727
H      5.159387   -1.709268   -1.414028
H      2.792679   -1.192620   -1.096241
H      1.514369    1.835382    0.864021
H      0.873500   -1.030448    0.002037
H     -3.247912    0.302990    1.461787
H     -3.029244    1.429868   -0.766777
H     -7.056494    0.265625   -0.798749
H     -3.567591    0.364198   -2.614237
H     -5.387268   -2.551112    1.758981
H      7.518493   -1.162270   -0.923948
