37

C     -3.256674    2.347602   -0.539917
O     -3.861479    1.385517    0.318268
C     -3.455234    0.045594    0.423431
C     -4.125636   -0.798959    1.327465
C     -3.746348   -2.139658    1.445965
C     -2.696439   -2.648122    0.679241
C     -1.998124   -1.815097   -0.203289
C     -2.399634   -0.476247   -0.350735
C     -0.919729   -2.387971   -1.036390
C      0.282243   -1.827347   -1.245083
C      0.812481   -0.642821   -0.543795
O      0.334842   -0.275541    0.564569
O      1.896498    0.038200   -1.108197
C      2.546643    1.149467   -0.485539
C      3.439930    0.677740    0.682911
C      4.456861   -0.336387    0.230614
O      5.590170    0.034336   -0.178775
O      4.126862   -1.688109    0.225907
O      4.077508    1.782984    1.271735
C      3.339372    1.905541   -1.519501
O      3.865889    1.293633   -2.486666
O      3.532257    3.278841   -1.397521
O     -5.175178   -0.324396    2.114047
H     -3.360934    2.033033   -1.599773
H     -2.183720    2.470093   -0.280353
H     -3.767722    3.323107   -0.407638
H     -4.269578   -2.790607    2.134951
H     -2.420693   -3.690716    0.782158
H     -1.891266    0.148353   -1.072955
H     -1.124711   -3.333442   -1.524273
H      0.943481   -2.307055   -1.956134
H      1.771134    1.840308   -0.085438
H      2.784198    0.194587    1.442892
H      4.791043   -2.384012   -0.091293
H      4.416931    1.482666    2.155554
H      3.136947    3.798353   -0.622976
H     -5.492191    0.636536    2.068733
