18

C      2.824787    0.118796    0.056724
C      2.177231   -0.864351    0.807299
C      0.783535   -0.971081    0.770707
C      0.018921   -0.087187   -0.016324
C      0.685926    0.894365   -0.774956
C      2.080171    0.995391   -0.734892
C     -1.461265   -0.204633   -0.056368
N     -2.008691   -1.355913    0.215055
O     -3.367430   -1.594660    0.279676
N     -2.261960    0.938405   -0.392953
H      3.903789    0.198938    0.085503
H      2.755481   -1.544643    1.419201
H      0.303945   -1.737432    1.366861
H      0.137331    1.570867   -1.416898
H      2.584161    1.751320   -1.323276
H     -4.059622   -0.859387    0.230772
H     -1.868884    1.902586   -0.321191
H     -3.227428    0.848619   -0.775282
