20

C      3.037795   -0.526077    0.264365
C      1.600939   -0.132516    0.087181
C      0.588536   -1.098032    0.175014
C     -0.762173   -0.736830    0.047553
C     -1.104032    0.620794   -0.159807
C     -0.083287    1.584194   -0.226827
C      1.255909    1.211696   -0.098218
C     -2.537873    1.054859   -0.302167
N     -1.765766   -1.758194    0.135361
H      3.211592   -1.555349   -0.115714
H      3.705603    0.163020   -0.295364
H      3.300419   -0.488762    1.342183
H      0.851128   -2.135853    0.342817
H     -0.322193    2.629992   -0.376150
H      2.024566    1.973437   -0.144362
H     -3.100006    0.803445    0.621691
H     -2.621160    2.150263   -0.467181
H     -3.001499    0.542077   -1.170977
H     -2.783859   -1.546974    0.052005
H     -1.494637   -2.755189    0.288596
