19

C      2.476658    0.583752    0.489455
C      1.010349    0.415285    0.196063
C      0.420049   -0.867912    0.102713
C     -0.952187   -0.979045   -0.172802
C     -1.740651    0.163887   -0.355697
C     -1.153544    1.430154   -0.262648
C      0.209753    1.555503    0.010770
N     -3.137447    0.037627   -0.635874
N      1.191641   -2.063757    0.283267
H      3.077665    0.092864   -0.304610
H      2.717777    0.129078    1.473248
H      2.767824    1.655162    0.526569
H     -1.407936   -1.959125   -0.245088
H     -1.752714    2.321274   -0.402096
H      0.639883    2.547256    0.077635
H     -3.733810    0.883928   -0.773836
H     -3.585838   -0.902960   -0.707482
H      0.738665   -3.002128    0.210693
H      2.213862   -2.040843    0.489720
