46

C     -6.976193   -0.542524    0.308163
C     -6.520528    0.301646    1.324546
C     -5.234024    0.845840    1.259532
C     -4.396144    0.553641    0.170237
C     -4.858617   -0.302901   -0.843344
C     -6.145330   -0.845717   -0.773950
C     -2.996297    1.113127    0.117898
C     -2.017840    0.285589    0.973282
C     -1.863011   -1.102821    0.416291
O     -1.213818   -1.292678   -0.647724
O     -2.464161   -2.177795    1.063015
N     -0.709028    0.943486    1.027735
C      0.304391    0.547833    1.963064
O      0.047241   -0.297653    2.862543
C      1.679858    1.134059    1.870303
N      2.247563    0.880296    0.548764
C      2.608586   -0.437258    0.107292
O      2.507176   -1.418756    0.892751
C      3.126478   -0.659742   -1.291032
C      4.529340   -0.044070   -1.464915
C      5.580596   -0.734119   -0.585102
C      6.934918   -0.138493   -0.823331
O      7.723720   -0.678225   -1.643116
O      7.315320    1.033967   -0.176958
N      2.198527   -0.067929   -2.256096
H     -7.971576   -0.964329    0.360819
H     -7.163024    0.531806    2.164591
H     -4.889358    1.491903    2.057464
H     -4.222184   -0.553147   -1.683072
H     -6.497318   -1.503875   -1.557811
H     -3.013236    2.159588    0.494822
H     -2.637519    1.158665   -0.934604
H     -2.426567    0.223233    2.006639
H     -2.381297   -3.117528    0.694450
H     -0.476856    1.688932    0.331703
H      2.345351    0.707849    2.652223
H      1.610516    2.229726    2.039755
H      2.378143    1.689771   -0.098939
H      3.191263   -1.755457   -1.486486
H      4.836985   -0.149508   -2.529020
H      4.497724    1.042854   -1.229828
H      5.608761   -1.822026   -0.813823
H      5.321598   -0.614405    0.488568
H      6.692167    1.499745    0.471932
H      1.265675   -0.528327   -2.141264
H      2.522029   -0.314276   -3.219970
