14

C      2.480386    0.457827    0.389432
N      1.289686   -0.203391   -0.129593
C     -0.025315    0.149433    0.315523
O     -0.178764    1.055227    1.180403
N     -1.165599   -0.529083   -0.224116
C     -2.523067   -0.205880    0.196814
H      2.548072    0.304519    1.487085
H      2.434325    1.544889    0.167849
H      3.387347    0.031921   -0.089213
H      1.402340   -0.955269   -0.846240
H     -1.024152   -1.277140   -0.939656
H     -2.631238   -0.382515    1.287695
H     -3.249031   -0.848393   -0.344694
H     -2.744989    0.857854   -0.031539
