13

C     -0.232448    1.312660   -0.405452
C      0.034197   -0.195675   -0.346633
C      1.444850   -0.459704    0.105923
O      1.806275   -0.167405    1.276889
O      2.363460   -1.015609   -0.775570
N     -0.927192   -0.860525    0.540465
H     -1.258752    1.502147   -0.785516
H      0.489722    1.802229   -1.093585
H     -0.135555    1.768864    0.603219
H     -0.087807   -0.605323   -1.374696
H     -0.732155   -1.888103    0.567310
H     -1.898063   -0.720634    0.177031
H     -0.866532   -0.472922    1.510615
