37

C      2.692379    1.330247    1.234052
C      2.643225    0.412988   -0.007861
C      3.916939   -0.467066    0.011067
C      2.693162    1.277158   -1.287252
C      1.335812   -0.410338    0.009067
C      0.089969    0.255774   -0.005341
C     -1.147103   -0.439426    0.008900
C     -1.097886   -1.858420    0.038773
C      0.131137   -2.523699    0.053160
C      1.328445   -1.817934    0.038683
O     -2.264360   -2.621601    0.054461
C     -2.504877    0.316419   -0.007444
C     -2.344144    1.858665   -0.039837
C     -3.314171   -0.075547   -1.265051
C     -3.314999   -0.022317    1.265007
H      3.648820    1.895851    1.268978
H      1.869331    2.074706    1.228315
H      2.609836    0.726136    2.163448
H      3.955864   -1.127377   -0.882241
H      3.955287   -1.089206    0.931392
H      4.832615    0.163516   -0.001913
H      2.611168    0.634461   -2.190445
H      1.870130    2.021198   -1.313357
H      3.649640    1.840789   -1.345372
H      0.106458    1.330910   -0.027963
H      0.159681   -3.606051    0.075944
H      2.239218   -2.397244    0.051156
H     -2.243079   -3.634588    0.075790
H     -1.803655    2.221740    0.861246
H     -3.335965    2.361403   -0.050731
H     -1.803073    2.183531   -0.955045
H     -3.628304   -1.137071   -1.252065
H     -4.243310    0.530251   -1.341067
H     -2.709722    0.098918   -2.181393
H     -2.711156    0.190565    2.173596
H     -3.629122   -1.083454    1.296487
H     -4.244189    0.586114    1.314855
