18

C     -1.466603    0.739248    0.834889
C     -0.264559    1.446969    0.878494
C      0.869381    0.965251    0.211758
C      0.803240   -0.255085   -0.490778
C     -0.417662   -0.951097   -0.545205
C     -1.558755   -0.464199    0.118423
N     -2.802919   -1.187046    0.068654
O     -2.893278   -2.257658   -0.567520
O     -3.916025   -0.708896    0.721611
C      1.983625   -0.808070   -1.193675
O      1.831642   -1.413687   -2.287717
O      3.265144   -0.705585   -0.655959
O      2.046386    1.713490    0.225590
H     -2.326475    1.138965    1.356588
H     -0.218340    2.381280    1.423633
H     -0.473469   -1.883887   -1.093104
H      3.428804   -0.346939    0.276398
H      2.109862    2.596946    0.717921
