34

C      5.677854    0.679005    1.238861
O      4.286378    0.961119    1.347003
C      3.288884    0.336221    0.583569
C      3.580376   -0.646774   -0.380368
C      2.551020   -1.254053   -1.115439
C      1.211966   -0.870501   -0.893653
C      0.068650   -1.502695   -1.595940
O      0.251902   -2.313781   -2.543000
C     -1.331047   -1.220940   -1.129128
C     -1.443387    0.234365   -0.648013
O     -0.391892    0.543006    0.270923
C      0.928079    0.128994    0.055460
C      1.959462    0.712596    0.794885
C     -2.784724    0.481601   -0.002186
C     -3.818834    1.094596   -0.731100
C     -5.071984    1.296984   -0.144429
C     -5.306703    0.880822    1.168596
C     -4.290004    0.257153    1.896268
C     -3.035321    0.052613    1.314081
O      2.862191   -2.238710   -2.053199
H      6.233611    1.315196    1.957709
H      5.871589   -0.386713    1.483708
H      6.035077    0.907000    0.212390
H      4.601741   -0.952757   -0.561569
H     -1.569766   -1.920089   -0.298552
H     -2.051411   -1.395899   -1.958213
H     -1.325908    0.902252   -1.531267
H      1.726905    1.472854    1.530152
H     -3.656295    1.414700   -1.752814
H     -5.862587    1.773663   -0.709430
H     -6.277735    1.037173    1.620382
H     -4.475173   -0.071438    2.910774
H     -2.260890   -0.441893    1.887311
H      3.817976   -2.529059   -2.223771
