37

C     -0.943474   -1.300694   -1.580263
C     -0.628544   -0.973876   -0.088117
C     -1.772224   -1.572789    0.797406
C     -2.942992   -0.594855    1.113031
C     -3.162519    0.531850    0.077108
C     -1.865142    1.187417   -0.356202
C     -1.899711    2.204457   -1.232957
C     -0.581451    0.564939    0.163777
C      0.762636    1.171057   -0.279569
C      1.864236    0.668244    0.679940
C      1.680245   -0.814134    1.155622
C      0.754234   -1.640158    0.238943
O      2.987524   -1.386920    1.115210
C      3.870629   -0.565047    0.445379
O      5.066315   -0.877180    0.203482
C      3.241207    0.685365    0.093708
C      3.827891    1.713165   -0.518515
H     -0.871090   -2.396012   -1.756967
H     -0.226916   -0.800683   -2.263930
H     -1.965517   -0.996657   -1.878138
H     -1.352306   -1.898960    1.774684
H     -2.184443   -2.492257    0.325727
H     -3.885137   -1.173311    1.226978
H     -2.745544   -0.117019    2.098247
H     -3.684596    0.116090   -0.810924
H     -3.828177    1.300590    0.526394
H     -2.850765    2.583016   -1.595349
H     -1.000091    2.666338   -1.620527
H     -0.621604    0.738434    1.265058
H      0.991973    0.897763   -1.331237
H      0.729713    2.279249   -0.205924
H      1.872086    1.320209    1.582627
H      1.290542   -0.842391    2.196664
H      1.324837   -1.813269   -0.702158
H      0.608477   -2.649246    0.682912
H      4.852821    1.641453   -0.859128
H      3.286878    2.635821   -0.682990
