48

C     -0.945826    1.207822    1.821254
C      0.144307    2.268670    1.786144
N      0.297502    2.720957    0.380509
C      1.733484    2.739607   -0.035152
C      2.193232    1.358192   -0.477470
C      3.238988    0.773955    0.150544
C      3.516740   -0.711023    0.205431
O      3.204820   -1.404709   -0.987255
C      1.854748   -1.849271   -1.056699
C      1.507991   -3.053912   -0.112936
C      0.048052   -3.061639    0.304548
O     -0.545537   -4.155451    0.496090
N     -0.621798   -1.807374    0.536791
C      0.130855   -0.572988    0.357705
C      0.816701   -0.698204   -1.018399
C      1.329918    0.651393   -1.518651
C      0.073817    1.493449   -1.805433
C     -0.582155    1.842192   -0.453538
C     -0.917268    0.597842    0.424260
C     -2.197486   -0.140185    0.149557
C     -3.474507    0.377607   -0.089024
C     -4.546398   -0.516091   -0.230916
C     -4.336052   -1.901988   -0.113108
C     -3.053165   -2.405691    0.152413
C     -1.994598   -1.500569    0.292202
O     -0.167317    3.996352    0.294354
H     -0.771723    0.460513    2.627244
H     -1.923913    1.706868    2.006779
H      1.080634    1.809689    2.179209
H     -0.117660    3.107381    2.471020
H      1.874392    3.431953   -0.895217
H      2.370757    3.154961    0.778992
H      3.791613    1.362323    0.878017
H      4.606845   -0.831145    0.375661
H      3.039287   -1.136041    1.108708
H      1.764396   -2.271423   -2.083650
H      2.122257   -3.053821    0.807196
H      1.742785   -4.005172   -0.639056
H      0.883705   -0.481841    1.167057
H      0.024010   -1.026995   -1.735215
H      1.904656    0.518994   -2.461262
H     -0.650414    0.956422   -2.457240
H      0.344943    2.422851   -2.351810
H     -1.535110    2.372848   -0.681984
H     -3.642438    1.444153   -0.152976
H     -5.541691   -0.136754   -0.422547
H     -5.169731   -2.583578   -0.221473
H     -2.906649   -3.471124    0.249331
