48

C      5.204345   -0.547017    2.602033
O      5.660107    0.227764    1.497501
C      4.920420    0.458144    0.326251
C      5.481978    1.259615   -0.684369
C      4.764214    1.512593   -1.857352
C      3.492020    0.968364   -2.039969
C      2.922873    0.150934   -1.052360
C      3.635262   -0.088229    0.136316
C      1.532987   -0.410106   -1.244121
C      0.487446    0.426279   -0.495454
C     -0.318714    1.358888   -1.389853
O     -1.481177    0.698298   -1.836807
C     -1.548095   -0.546919   -1.174811
C     -0.495181   -0.579087   -0.058644
C      0.307509   -1.872185    0.000813
O      1.471952   -1.742635   -0.783373
C     -2.936354   -0.777166   -0.623444
C     -3.635224    0.260515    0.017460
C     -4.915525    0.034698    0.561084
C     -5.485568   -1.242898    0.467805
C     -4.783376   -2.282621   -0.155043
C     -3.515238   -2.053470   -0.691682
O     -6.752404   -1.472864    1.001682
O     -5.646885    1.048710    1.200114
C     -5.190241    2.386106    1.370015
O      6.752546    1.816780   -0.540544
H      5.988626   -0.555469    3.386309
H      5.012528   -1.592686    2.282711
H      4.281139   -0.099910    3.027265
H      5.194639    2.136932   -2.630637
H      2.950701    1.185984   -2.951887
H      3.181317   -0.696909    0.907091
H      1.295440   -0.438457   -2.332363
H      0.922795    0.964087    0.378768
H      0.276870    1.709312   -2.259734
H     -0.626367    2.253467   -0.805669
H     -1.322707   -1.325736   -1.939657
H     -0.923613   -0.311188    0.935200
H      0.612105   -2.067379    1.051657
H     -0.289202   -2.742858   -0.346675
H     -3.174647    1.236188    0.092531
H     -5.219459   -3.271797   -0.220656
H     -2.984178   -2.873473   -1.159973
H     -7.190412   -2.385585    0.954327
H     -5.012678    2.857117    0.380378
H     -5.966513    2.968382    1.907399
H     -4.257127    2.397887    1.971782
H      7.321066    1.659602    0.283887
