25

C     -3.489659   -0.570065    0.358323
C     -2.401146    0.478529    0.606460
C     -2.966314    1.896818    0.483896
C     -1.252740    0.283255   -0.343540
O     -1.441042    0.386518   -1.587336
O      0.015502   -0.012165    0.174388
C      1.169419   -0.217861   -0.593807
O      1.135182   -0.146473   -1.853521
C      2.464277   -0.528074    0.103745
C      2.981741   -1.908927   -0.310330
C      3.505090    0.557956   -0.184755
H     -4.307538   -0.453748    1.101126
H     -3.066329   -1.591833    0.465756
H     -3.916384   -0.463195   -0.662387
H     -2.027518    0.346353    1.645900
H     -2.167739    2.643840    0.681368
H     -3.378612    2.071685   -0.533354
H     -3.776343    2.050141    1.228581
H      2.280561   -0.544942    1.200772
H      2.221143   -2.685752   -0.080565
H      3.206893   -1.936924   -1.398395
H      3.907976   -2.153448    0.252262
H      4.439174    0.350437    0.379721
H      3.744669    0.597958   -1.269359
H      3.119739    1.549917    0.135049
