26

C     -2.560694    0.049827    0.677572
C     -1.807745    0.044503   -0.665254
C     -0.656599   -1.018487   -0.706173
C      0.794422   -0.445273   -0.759544
C      1.212058    0.287976    0.539088
C      2.581557    0.902347    0.388168
O      3.617322    0.186355    0.454383
O      2.700033    2.265455    0.134613
N      1.161886   -0.611688    1.696784
O      1.698882   -1.497594   -0.998348
O     -0.860114   -1.880046   -1.800145
O     -1.336654    1.334351   -0.966785
O     -1.723321    0.467954    1.718268
H     -2.948892   -0.971800    0.890486
H     -3.431509    0.739292    0.603955
H     -2.564090   -0.240049   -1.435549
H     -0.723297   -1.660018    0.199410
H      0.855511    0.289303   -1.598761
H      0.506782    1.124011    0.721247
H      3.609860    2.694760    0.015960
H      1.393291   -0.063651    2.557483
H      1.884797   -1.361409    1.599062
H      1.762479   -1.616151   -1.982154
H     -0.767915   -1.336294   -2.626594
H     -2.127561    1.886750   -1.202369
H     -2.270492    0.429573    2.545196
