34

C     -2.806324    3.296933   -0.551170
O     -3.039186    1.892277   -0.517067
C     -2.043432    0.911712   -0.381016
C     -0.686767    1.272114   -0.264753
C      0.312496    0.302527   -0.118163
C     -0.049149   -1.053550   -0.118840
C     -1.396992   -1.436954   -0.233538
C     -2.398743   -0.461177   -0.360153
O     -3.723853   -0.927322   -0.464322
C     -4.896736   -0.131737   -0.595390
O     -1.786197   -2.787000   -0.229464
C     -0.892444   -3.888792   -0.105283
C      1.724406    0.747639   -0.009080
C      2.691494    0.016563    0.563733
C      4.080829    0.492581    0.668523
O      4.417531    1.612151    0.191998
O      5.025272   -0.317998    1.304209
C      6.388449    0.062024    1.449327
H     -2.158728    3.556316   -1.415152
H     -3.776922    3.821250   -0.666507
H     -2.334632    3.629470    0.397537
H     -0.398496    2.314869   -0.277335
H      0.715644   -1.812690   -0.056861
H     -5.779492   -0.801331   -0.646660
H     -5.014663    0.528909    0.289110
H     -4.857287    0.460489   -1.533654
H     -0.344523   -3.829697    0.858862
H     -0.176326   -3.897382   -0.953967
H     -1.475701   -4.832058   -0.124445
H      1.963791    1.739514   -0.375408
H      2.469251   -0.948408    0.997855
H      6.460879    1.000764    2.038437
H      6.850666    0.209065    0.450196
H      6.935885   -0.741068    1.983997
