24

C     -4.309891    0.987081    0.139649
O     -3.366456    0.500444   -0.809386
C     -2.015028    0.246776   -0.527151
C     -1.194730   -0.232072   -1.556970
C      0.160664   -0.495700   -1.314509
C      0.719812   -0.274877   -0.045879
C     -0.112072    0.190954    0.990177
C     -1.463633    0.453471    0.750600
C      2.158045   -0.580138    0.159503
C      2.897215   -0.044726    1.142252
C      4.329852   -0.346112    1.344594
O      4.870758    0.000891    2.426870
O      5.114850   -0.978578    0.379802
O     -1.735507   -0.445116   -2.824058
H     -4.411567    0.268328    0.980040
H     -5.296848    1.097565   -0.354368
H     -3.990254    1.979724    0.521383
H      0.780645   -0.865262   -2.122769
H      0.263871    0.331410    1.993846
H     -2.073354    0.810208    1.569448
H      2.614858   -1.256919   -0.548203
H      2.448054    0.643893    1.844482
H      4.781413   -1.200460   -0.548217
H     -1.170696   -0.790787   -3.591137
