26

C     -3.237018    1.401646   -0.252996
O     -2.528847    0.201409    0.030074
C     -1.518638    0.133562    0.994560
O     -1.212105    1.150163    1.675826
C     -0.774671   -1.156836    1.202895
C      0.047293   -1.517350   -0.049352
C      1.116472   -0.491420   -0.332128
C      2.331518   -0.523935    0.372503
C      3.310469    0.445599    0.133600
C      3.080998    1.456890   -0.803372
C      1.871070    1.501844   -1.501410
C      0.889745    0.533952   -1.266217
N     -1.729779   -2.225889    1.495230
H     -3.767207    1.754152    0.656979
H     -2.531492    2.184353   -0.604126
H     -3.982392    1.205500   -1.050699
H     -0.081626   -1.047344    2.069426
H      0.532575   -2.506692    0.101252
H     -0.627263   -1.625071   -0.927806
H      2.517936   -1.297753    1.106941
H      4.245841    0.414749    0.677275
H      3.839110    2.207477   -0.985916
H      1.692202    2.288709   -2.222728
H     -0.046853    0.586210   -1.807531
H     -1.193380   -3.096631    1.715883
H     -2.243961   -1.977293    2.372203
