49

C     -0.202986    1.344862   -1.976196
C     -1.610616    1.155999   -1.459762
C     -1.889487    1.225752   -0.127403
C     -3.315923    1.071918    0.428461
C     -4.394318    1.167798   -0.685167
C     -3.977315    0.412595   -1.941830
C     -2.700739    1.027629   -2.499538
C     -3.604389    2.186989    1.459170
C     -3.426995   -0.296702    1.139044
C     -0.785014    1.345744    0.855194
C      0.040663    0.321657    1.094526
C      1.123948    0.387656    2.104742
C      2.306752   -0.226376    1.913936
C      2.688388   -0.923271    0.666552
C      3.855023   -1.572677    0.576807
C      4.311699   -2.259288   -0.659548
C      5.641827   -2.396094   -0.845078
C      6.306618   -2.973869   -2.033351
O      5.690574   -3.161584   -3.117837
O      7.664969   -3.270246   -1.962992
C      3.300612   -2.785474   -1.654423
C      0.903111    1.126325    3.399230
H     -0.186985    1.417446   -3.084876
H      0.429681    0.482967   -1.683175
H      0.232992    2.283433   -1.570118
H     -4.570548    2.231478   -0.963278
H     -5.369644    0.770246   -0.326007
H     -3.819045   -0.664261   -1.719398
H     -4.782839    0.484226   -2.702485
H     -2.922870    2.037819   -2.908807
H     -2.345652    0.396776   -3.342069
H     -4.664845    2.146609    1.791763
H     -2.964890    2.081257    2.361948
H     -3.412224    3.188698    1.013260
H     -4.462735   -0.473715    1.501205
H     -2.749689   -0.340897    2.019551
H     -3.143824   -1.125450    0.457988
H     -0.684212    2.273074    1.402810
H     -0.089905   -0.593114    0.528743
H      3.044064   -0.182342    2.709640
H      2.044575   -0.863036   -0.198664
H      4.525256   -1.558674    1.430377
H      6.312117   -2.048332   -0.065982
H      3.222583   -2.088629   -2.517231
H      2.299697   -2.899081   -1.189332
H      3.583872   -3.800953   -2.004122
H      1.534002    2.042492    3.421320
H      1.175200    0.475151    4.259614
H     -0.160534    1.417468    3.530673
