16

C     -1.543228   -1.558677   -0.516980
C     -0.847512   -0.404393   -0.235203
N     -1.714450    0.624366   -0.227501
C     -2.912019    0.073944   -0.501593
N     -2.846933   -1.261915   -0.685177
C      0.606962   -0.325989    0.005312
C      1.229105    0.814482    0.328920
C      2.682071    0.904055    0.578970
O      3.134945    1.932942    1.145145
O      3.576559   -0.093835    0.190899
H     -1.130160   -2.555749   -0.596319
H     -1.525339    1.635944   -0.056010
H     -3.830570    0.641695   -0.569981
H      1.161999   -1.250675   -0.064700
H      0.657242    1.723411    0.456508
H      3.301328   -0.899605   -0.354329
