16

C     -0.311580   -0.354869   -1.019929
C     -1.745894   -0.124972   -0.515426
C     -1.566953    0.096678    0.932475
O     -2.509916    0.351386    1.726783
N     -0.226454   -0.016458    1.351918
C      0.616920   -0.355232    0.220550
C      1.738337    0.637980    0.081126
O      1.524881    1.865104    0.270816
O      3.007526    0.219792   -0.308086
H     -0.038440    0.448127   -1.740765
H     -0.243363   -1.330387   -1.549298
H     -2.201100    0.770441   -0.990583
H     -2.378358   -1.022017   -0.688454
H      0.096229    0.050018    2.343212
H      1.032622   -1.374174    0.379748
H      3.205544   -0.756027   -0.494086
