24

C     -2.658422    0.491726   -0.988459
C     -1.226168    0.034326   -1.192938
C     -0.679497   -0.121146    0.218301
N     -1.402203    0.842823    1.052197
C     -2.739291    0.960678    0.463449
C      0.816129    0.082661    0.280183
O      1.311832    1.194494   -0.052316
N      1.672582   -0.985619    0.710896
C      3.126198   -0.851752    0.759628
C      3.692678   -0.858062   -0.623964
O      3.738528   -1.929762   -1.283097
O      4.140836    0.324024   -1.199505
H     -3.359779   -0.354964   -1.157231
H     -2.911292    1.317574   -1.688992
H     -1.179281   -0.924716   -1.753821
H     -0.669199    0.816883   -1.755147
H     -0.924517   -1.151078    0.568609
H     -0.938905    1.782522    1.033151
H     -1.462260    0.502288    2.040655
H     -3.098066    2.013320    0.514027
H     -3.460264    0.322260    1.022975
H      1.248854   -1.890239    1.017476
H      3.404078    0.085205    1.288684
H      3.557430   -1.703446    1.328716
