17

C      0.158969    0.119055    1.430273
C      1.326144    0.459117    0.488578
C      1.526630   -0.582371   -0.574132
O      1.885308   -1.745776   -0.252143
O      1.327599   -0.277184   -1.917692
C     -1.225264    0.347850    0.800760
C     -1.585553   -0.718146   -0.193267
O     -1.755004   -1.904570    0.193416
O     -1.742743   -0.411195   -1.541962
H      0.238341    0.785673    2.316550
H      0.250462   -0.923906    1.806277
H      2.259657    0.522614    1.088191
H      1.165567    1.457694    0.028264
H      1.041729    0.649092   -2.211207
H     -1.266416    1.351605    0.325772
H     -1.988937    0.337407    1.608045
H     -1.616488    0.533041   -1.885964
