33

C      0.183869   -0.294110    0.157804
C     -1.021215    0.127507    1.012003
C     -2.333978   -0.524052    0.548891
C     -2.846537    0.057172   -0.780215
C     -4.196009   -0.545595   -1.193046
C     -5.308515   -0.091007   -0.294163
O     -5.764174   -0.868433    0.585322
O     -5.827736    1.195400   -0.406006
C      1.488880    0.267223    0.735329
C      2.692359   -0.142652   -0.121904
C      3.996726    0.417988    0.456725
C      5.199912    0.009618   -0.397195
O      6.377074    0.557055    0.131074
H      0.245040   -1.404253    0.126002
H      0.059213    0.084824   -0.878803
H     -1.125441    1.234765    1.000430
H     -0.839221   -0.181821    2.064766
H     -3.094921   -0.347636    1.339394
H     -2.196609   -1.623577    0.454355
H     -2.116815   -0.168184   -1.586002
H     -2.938004    1.163019   -0.703264
H     -4.132514   -1.655952   -1.193868
H     -4.430061   -0.226346   -2.231262
H     -5.474559    1.843866   -1.099492
H      1.425851    1.377257    0.774352
H      1.628267   -0.115553    1.770525
H      2.754858   -1.252669   -0.161491
H      2.554469    0.240894   -1.157031
H      3.939979    1.528056    0.495666
H      4.138040    0.035520    1.491455
H      5.280052   -1.100533   -0.448412
H      5.067776    0.392813   -1.431581
H      6.613946    0.009397    0.924696
