27

C     -3.464619   -0.218135    0.689084
C     -1.975647   -0.281926    0.489939
C     -1.151004   -0.167814    1.544637
C      0.335957   -0.180162    1.328072
C      0.705835    0.743727    0.146275
C     -0.215691    0.555842   -1.102995
C     -1.378536   -0.440579   -0.895449
O     -0.902585   -1.751339   -1.057323
C      2.177531    0.589647   -0.211032
C      3.036012    1.601262   -0.006915
C      2.702968   -0.704414   -0.779854
H     -3.786091   -1.030423    1.374667
H     -4.004267   -0.339392   -0.273213
H     -3.742754    0.762579    1.129517
H     -1.547131   -0.016584    2.545110
H      0.651965   -1.225657    1.125462
H      0.849637    0.160143    2.253173
H      0.529907    1.782433    0.511436
H     -0.654727    1.544807   -1.363263
H      0.365866    0.243953   -1.998283
H     -2.147209   -0.233816   -1.675717
H     -1.700264   -2.335639   -1.149586
H      2.704329    2.547952    0.408177
H      4.088425    1.494321   -0.253363
H      3.464222   -1.134425   -0.095163
H      3.167247   -0.518192   -1.771380
H      1.890623   -1.448169   -0.912012
