22

C      4.125875    0.447799   -0.430345
C      2.870182    0.627679    0.352929
O      2.907871    1.218643    1.466397
O      1.657125    0.179611   -0.177291
C      0.416874    0.334593    0.505174
C     -0.707464   -0.260777   -0.345004
C     -2.109830    0.014812    0.240533
C     -3.159671   -0.412553   -0.750436
O     -3.872028    0.449295   -1.329687
O     -3.335887   -1.758880   -1.047420
N     -2.311866   -0.681967    1.518357
H      4.346373    1.377853   -0.994187
H      4.972215    0.222901    0.252477
H      4.009499   -0.393128   -1.145733
H      0.225495    1.416169    0.679135
H      0.473709   -0.190567    1.482458
H     -0.646520    0.190523   -1.360536
H     -0.545259   -1.356117   -0.451098
H     -2.215388    1.111071    0.410463
H     -2.095136   -1.701296    1.424665
H     -1.701731   -0.264064    2.256618
H     -3.304437   -0.571600    1.830747
