19

C      3.826613   -0.295891    0.031843
O      2.453988   -0.035924    0.299874
C      1.427562   -0.428641   -0.566278
O      1.703584   -1.039906   -1.635661
C      0.019662   -0.125995   -0.225962
C     -0.292501    0.554855    0.964451
C     -1.622144    0.842068    1.288374
C     -2.655684    0.454676    0.430838
C     -2.354667   -0.223785   -0.756894
C     -1.026357   -0.512841   -1.084362
O     -3.975359    0.747838    0.767051
H      3.998801   -1.390567   -0.042387
H      4.442858    0.109644    0.860252
H      4.128841    0.197123   -0.916350
H      0.488955    0.866116    1.646177
H     -1.849456    1.366754    2.207718
H     -3.148817   -0.527624   -1.427022
H     -0.819277   -1.038357   -2.008224
H     -4.746604    0.480458    0.166564
