33

C      3.679068    1.565399    1.222337
C      3.596516    0.286844    0.378404
C      2.169806   -0.003250   -0.043061
C      1.466463    0.880968   -0.882412
C      0.149353    0.605294   -1.258929
C     -0.490403   -0.558007   -0.804926
C      0.207465   -1.441275    0.033206
C      1.524636   -1.166582    0.410876
C     -1.921133   -0.844908   -1.196911
C     -2.955970   -0.119449   -0.299538
C     -2.845539   -0.603974    1.161976
C     -4.370611   -0.420428   -0.832544
O     -2.719983    1.267835   -0.363627
C      4.503712    0.347565   -0.821252
O      4.618049    1.407517   -1.493168
O      5.184576   -0.793386   -1.227032
H      3.031134    1.468858    2.119762
H      4.723841    1.728053    1.563702
H      3.352816    2.454895    0.642600
H      3.966753   -0.540572    1.024035
H      1.935950    1.785598   -1.246379
H     -0.372768    1.300167   -1.905004
H     -0.270802   -2.341246    0.399576
H      2.039126   -1.863602    1.060544
H     -2.103113   -1.942616   -1.170174
H     -2.067204   -0.532354   -2.254887
H     -3.653896   -0.160649    1.782246
H     -2.929374   -1.710776    1.216248
H     -1.875224   -0.294772    1.604324
H     -4.570201   -1.513846   -0.821806
H     -5.140099    0.081895   -0.207716
H     -4.477660   -0.049663   -1.874587
H     -3.385283    1.720465    0.218947
