31

C     -3.130833   -1.484133    0.611679
C     -3.372495   -0.125956   -0.061305
C     -2.394332    0.138469   -1.227363
C     -0.946870    0.219390   -0.800985
C     -0.392847    1.444531   -0.399509
C      0.940982    1.517568    0.010972
C      1.747672    0.366650    0.025216
C      1.189554   -0.860054   -0.380560
C     -0.144190   -0.931503   -0.790856
C      3.190775    0.457008    0.479625
C      3.426891   -0.367880    1.751455
C      4.124315    0.054926   -0.630642
O      4.396329   -1.157560   -0.840234
O      4.652957    1.027060   -1.470578
C     -3.354920    0.995789    0.943963
O     -4.120048    1.984584    0.793880
O     -2.463014    0.979853    2.010717
H     -2.144480   -1.512515    1.120897
H     -3.167371   -2.297152   -0.144344
H     -3.922139   -1.677759    1.367170
H     -4.394716   -0.166896   -0.499913
H     -2.683091    1.085501   -1.734807
H     -2.512806   -0.662869   -1.989708
H     -0.995988    2.344057   -0.400336
H      1.342124    2.474961    0.319316
H      1.785347   -1.763522   -0.379198
H     -0.553097   -1.886602   -1.096549
H      3.431017    1.512020    0.739940
H      2.751969   -0.016432    2.561075
H      3.237122   -1.447893    1.574536
H      4.476185   -0.243639    2.095084
