26

C      3.772394   -0.272128    0.176241
C      2.277373   -0.205385    0.065172
C      1.524172   -0.202329    1.175142
C      0.053313   -0.131460    1.090080
C     -0.560514    0.158778   -0.073138
C      0.280403    0.524058   -1.278673
C      1.610598   -0.244514   -1.290607
C     -2.074000    0.214658   -0.174618
C     -2.659845    1.286470    0.753311
C     -2.698512   -1.158058    0.101727
H      4.150114    0.634239    0.694784
H      4.245553   -0.328824   -0.826549
H      4.068396   -1.173408    0.753903
H      1.988178   -0.254766    2.152738
H     -0.521228   -0.324333    1.986646
H     -0.267841    0.308040   -2.220699
H      0.489907    1.615124   -1.244007
H      2.275954    0.192734   -2.065852
H      1.416540   -1.305701   -1.558559
H     -2.356216    0.498408   -1.212526
H     -2.186788    2.269977    0.544922
H     -2.496700    1.027618    1.820856
H     -3.752660    1.383325    0.578420
H     -2.265951   -1.917586   -0.584252
H     -2.517436   -1.476312    1.150381
H     -3.795204   -1.118623   -0.071190
