23

C     -2.247409    0.110227   -1.550860
C     -1.790471   -0.389698   -0.175279
C     -2.540449    0.331454    0.950959
C     -0.288882   -0.245594   -0.012137
C      0.510040   -1.386268    0.182315
C      1.894561   -1.265668    0.333837
C      2.502721   -0.004329    0.293549
C      1.713594    1.136810    0.100203
C      0.329035    1.019052   -0.051579
N      3.919080    0.117476    0.448705
H     -3.331528   -0.090593   -1.687214
H     -2.075027    1.202133   -1.658510
H     -1.692540   -0.422222   -2.352807
H     -2.067832   -1.465855   -0.112604
H     -2.195194   -0.042765    1.938512
H     -3.630791    0.135340    0.867712
H     -2.375232    1.428775    0.904574
H      0.063230   -2.372055    0.217146
H      2.493217   -2.155570    0.482658
H      2.171202    2.117599    0.067089
H     -0.258560    1.915717   -0.199697
H      4.515718   -0.727508    0.593297
H      4.381516    1.053540    0.420128
