22

C     -2.756000   -0.702184   -0.388742
N     -1.779196    0.375436   -0.187531
C     -2.260905    1.758594   -0.083967
C     -0.360945    0.078342   -0.092603
C      0.605944    1.078540   -0.325546
C      1.970656    0.790968   -0.234036
C      2.405006   -0.499840    0.092206
C      1.452741   -1.502943    0.326352
C      0.087309   -1.218311    0.235069
C      3.849392   -0.782138    0.183833
O      4.270314   -1.933267    0.475038
H     -2.853659   -1.301293    0.540621
H     -2.429525   -1.356727   -1.224622
H     -3.758508   -0.302602   -0.650640
H     -1.809748    2.250220    0.803991
H     -3.364054    1.800119    0.036936
H     -1.991399    2.321716   -1.001814
H      0.315873    2.085712   -0.590208
H      2.689341    1.579830   -0.420978
H      1.762074   -2.508717    0.582506
H     -0.612444   -2.018054    0.433484
H      4.567731    0.006600   -0.000543
