19

C     -3.129090    0.825325   -0.160920
C     -2.254721   -0.389967   -0.076624
O     -2.806478   -1.523931   -0.053897
C     -0.771185   -0.289431   -0.019976
C      0.011477   -1.455845    0.058614
C      1.405993   -1.378022    0.112531
C      2.053413   -0.132373    0.089256
C      1.275002    1.035026    0.010797
C     -0.119727    0.958364   -0.043175
N      3.489791   -0.056380    0.144959
O      4.070564    1.048778    0.124514
O      4.248278   -1.202126    0.221800
H     -2.967587    1.468540    0.729328
H     -4.200516    0.533404   -0.193056
H     -2.893481    1.396119   -1.083435
H     -0.453343   -2.433692    0.078660
H      1.977337   -2.295287    0.172527
H      1.744728    2.010133   -0.008937
H     -0.680454    1.881366   -0.102966
