18

C     -0.813435   -1.015675    0.994562
C      0.583553   -1.060089    1.006196
C      1.331062   -0.207114    0.176834
C      0.651985    0.686935   -0.666750
C     -0.745470    0.732392   -0.677713
C     -1.494389   -0.112711    0.159770
C     -2.977505   -0.080230    0.156679
O     -3.625194   -1.079326    0.568534
O     -3.687394    1.038633   -0.277920
C      2.810050   -0.250508    0.185019
O      3.421348   -1.054722    0.939641
O      3.541821    0.598120   -0.641807
H     -1.361653   -1.682624    1.648559
H      1.077467   -1.762879    1.665630
H      1.199664    1.349385   -1.325334
H     -1.230606    1.413864   -1.362742
H     -3.235943    1.909940   -0.523506
H      4.554639    0.576609   -0.643898
