16

C      2.794681    0.610112   -0.032359
C      1.884402   -0.269762    0.388992
C      0.421111   -0.162546    0.148609
C     -0.168805    0.903691   -0.564853
C     -1.553739    0.946120   -0.756780
C     -2.365949   -0.066638   -0.243953
C     -1.795664   -1.126065    0.463084
C     -0.412285   -1.174806    0.658612
H      3.840076    0.443635    0.193602
H      2.542323    1.494517   -0.596087
H      2.246637   -1.124797    0.948138
H      0.420048    1.707852   -0.978767
H     -1.998037    1.767055   -1.304909
H     -3.437174   -0.030320   -0.394522
H     -2.425801   -1.911229    0.860630
H      0.008177   -2.006820    1.210562
