13

C     -1.723192    0.157103    0.089905
C     -1.141519   -1.109904   -0.019331
C      0.249611   -1.238473   -0.092022
C      1.062287   -0.096849   -0.055422
C      0.477019    1.172226    0.054116
C     -0.914437    1.297345    0.126601
C      2.493873   -0.227366   -0.130119
N      3.644799   -0.332296   -0.190173
H     -2.799610    0.255240    0.146062
H     -1.768321   -1.991839   -0.047658
H      0.690358   -2.224587   -0.176483
H      1.094709    2.061842    0.083359
H     -1.365577    2.277556    0.211166
