21

C     -3.840192    0.347622   -0.311473
O     -2.803874    0.695110    0.601063
C     -1.458445    0.328720    0.448048
C     -0.542042    0.739636    1.423120
C      0.809643    0.399580    1.316620
C      1.262563   -0.369236    0.233931
C      0.350117   -0.770705   -0.753427
C     -1.001899   -0.430414   -0.646620
C      2.721830   -0.705995    0.099075
N      3.391643    0.301915   -0.715622
H     -4.800592    0.764632    0.054714
H     -3.625820    0.775438   -1.313594
H     -3.934798   -0.756775   -0.379283
H     -0.879330    1.328849    2.266499
H      1.502605    0.736135    2.077892
H      0.685987   -1.347459   -1.606493
H     -1.681763   -0.758991   -1.420738
H      3.202544   -0.765936    1.101531
H      2.833111   -1.702717   -0.381915
H      3.425524    1.193671   -0.169409
H      4.383187   -0.003081   -0.847254
