23

C     -3.356309   -1.105756   -0.227745
C     -3.018751   -0.298097    0.861821
C     -1.945849    0.593866    0.767504
C     -1.208542    0.689981   -0.424784
C     -1.545250   -0.135285   -1.511052
C     -2.618907   -1.025856   -1.412341
C     -0.032045    1.620835   -0.515765
C      1.207606    0.920024   -0.064079
N      2.009035    0.214354   -0.895713
C      2.965131   -0.258573   -0.073709
C      2.701079    0.172181    1.205578
O      1.612162    0.894449    1.188355
O      3.446809   -0.100873    2.345446
C      4.082753   -1.097354   -0.519081
O      4.945212   -1.510942    0.299710
H     -4.186110   -1.796574   -0.152571
H     -3.586265   -0.365767    1.780964
H     -1.688394    1.207149    1.622246
H     -0.975786   -0.090002   -2.431185
H     -2.876990   -1.656719   -2.253102
H     -0.200064    2.518066    0.118352
H      0.100559    1.976071   -1.560756
H      4.168916   -1.365177   -1.563787
