29

C      1.888033    1.751757   -0.098681
C      2.448871    0.796138   -1.157839
C      3.456141   -0.138917   -0.555336
O      4.360967   -0.632417   -1.279459
N      3.361515   -0.519229    0.821629
C      2.347403    0.024987    1.674192
O      2.272202   -0.353144    2.873620
C      1.344436    1.015114    1.141281
N      0.057345    0.368475    0.852132
C     -1.207736    1.036024    0.792412
O     -1.406122    2.214194    1.191525
C     -2.210248    0.169258    0.185554
C     -3.562601    0.384376   -0.074582
C     -4.288143   -0.649676   -0.693021
C     -3.652585   -1.862508   -1.037744
C     -2.285504   -2.052605   -0.767379
C     -1.590044   -1.013614   -0.151184
C     -0.189833   -0.906498    0.240330
O      0.682060   -1.798694    0.067561
H      1.084693    2.372512   -0.551289
H      2.698454    2.443940    0.221249
H      1.626551    0.206409   -1.613767
H      2.929025    1.392353   -1.963661
H      4.047390   -1.203526    1.212934
H      1.178499    1.778780    1.933182
H     -4.040687    1.318508    0.189999
H     -5.340152   -0.513914   -0.907559
H     -4.220498   -2.650580   -1.514813
H     -1.789432   -2.977506   -1.031287
