19

C      2.099517    0.792817   -0.947434
C      2.719520    0.633306    0.293046
C      2.082241   -0.117288    1.283515
N      0.871827   -0.685302    1.034820
C      0.248742   -0.551776   -0.169259
C      0.856708    0.201958   -1.184420
C     -1.101251   -1.176448   -0.381376
C     -2.231829   -0.157756   -0.203715
N     -2.324471    0.279664    1.187046
H      2.579981    1.375155   -1.722970
H      3.682337    1.088405    0.486012
H      2.548584   -0.246554    2.250988
H      0.372362    0.330637   -2.144451
H     -1.244728   -2.018202    0.330931
H     -1.152754   -1.600652   -1.407796
H     -2.075775    0.717525   -0.873909
H     -3.188892   -0.643520   -0.494963
H     -1.537768    0.942228    1.376864
H     -3.204351    0.835804    1.287069
