17

C     -2.305927    0.677311    0.280661
O     -2.686552    1.770717   -0.215610
C     -0.841513    0.438098    0.538585
C     -0.175441   -0.225357   -0.691277
C      1.257286   -0.767726   -0.441963
C      2.277984    0.279065    0.041949
F      2.214188    1.425642   -0.729719
F      2.055310    0.603450    1.368025
F      3.553803   -0.246685   -0.059987
F      1.206919   -1.800671    0.480092
F      1.720100   -1.297438   -1.635940
F     -0.955266   -1.297449   -1.099201
F     -0.143710    0.688317   -1.733330
F     -0.242907    1.658730    0.803799
F     -0.707816   -0.369022    1.655940
O     -3.248337   -0.316416    0.535040
H     -2.978120   -1.220566    0.902936
