25

C     -2.287740   -1.949559   -1.807434
C     -2.559475   -1.671609   -0.465035
C     -1.914708   -0.608803    0.175395
C     -0.995646    0.188593   -0.527784
C     -0.721563   -0.102957   -1.874745
C     -1.368729   -1.166574   -2.511298
C     -0.272902    1.315326    0.165684
C      1.127551    0.879191    0.629912
C      1.868041    2.056064    1.204677
O      1.613118    2.454652    2.372337
O      2.806201    2.744511    0.440513
N      1.033608   -0.186123    1.633504
C      2.062044   -1.165118    1.814574
O      3.074442   -1.187634    1.065369
H     -2.786953   -2.773212   -2.301221
H     -3.268129   -2.281443    0.080289
H     -2.130484   -0.409158    1.217612
H     -0.005891    0.491750   -2.428958
H     -1.155592   -1.385543   -3.549606
H     -0.866967    1.676797    1.034520
H     -0.179579    2.171262   -0.539284
H      1.683866    0.504082   -0.257849
H      3.017597    2.466549   -0.510301
H      0.256606   -0.164892    2.332269
H      1.971283   -1.896153    2.606860
