38

C     -4.249374   -0.475740    0.840711
C     -3.440560    0.123152   -0.319505
C     -4.393190    0.674951   -1.387886
C     -2.483111   -0.913020   -0.955596
C     -1.425895   -1.504756    0.000223
C     -0.534862   -0.475216    0.718933
C      0.300395    0.374952   -0.252969
C      1.198276    1.397654    0.466761
C      2.271541    0.794820    1.396394
C      3.208409   -0.230943    0.734174
C      4.019435    0.364501   -0.423396
C      5.017410   -0.632812   -0.928950
O      4.719179   -1.387231   -1.892005
O      6.259111   -0.765400   -0.314419
H     -4.796425   -1.384472    0.509661
H     -3.582148   -0.740782    1.686592
H     -4.984812    0.265557    1.220045
H     -2.852449    0.983367    0.065290
H     -3.815031    1.143168   -2.213063
H     -5.024994   -0.137155   -1.808083
H     -5.054272    1.453034   -0.949679
H     -1.964276   -0.453438   -1.823983
H     -3.083008   -1.756304   -1.363658
H     -1.932255   -2.133001    0.763534
H     -0.774338   -2.190943   -0.583851
H      0.148007   -1.047058    1.381395
H     -1.148417    0.179554    1.372480
H      0.909227   -0.279853   -0.911097
H     -0.383071    0.952357   -0.910147
H      0.554680    2.074844    1.069710
H      1.693155    2.035723   -0.296101
H      2.886201    1.627063    1.803661
H      1.778612    0.318449    2.270006
H      2.629823   -1.111758    0.383186
H      3.912328   -0.596363    1.514273
H      3.343892    0.652022   -1.256982
H      4.556051    1.275700   -0.081516
H      6.516756   -0.186351    0.475856
