28

C     -5.060904    0.403824   -0.807817
C     -3.923361    0.909947   -1.441677
C     -2.653424    0.453627   -1.074143
C     -2.512081   -0.507563   -0.055216
C     -3.663435   -1.026252    0.558526
C     -4.931243   -0.566609    0.188747
N     -1.221172   -1.013463    0.326621
C     -0.016637   -0.231903    0.325911
O     -0.075442    1.024415    0.231323
N      1.248405   -0.883465    0.517936
C      2.522712   -0.242533    0.334825
C      2.717781    0.736373   -0.658034
C      3.974459    1.325691   -0.829833
C      5.047686    0.935932   -0.024714
C      4.868494   -0.050764    0.947918
C      3.613911   -0.643182    1.122290
H     -6.042877    0.757123   -1.094846
H     -4.025989    1.649875   -2.224970
H     -1.789750    0.832637   -1.603761
H     -3.576190   -1.780181    1.330858
H     -5.813328   -0.964676    0.673497
H     -1.166637   -1.988405    0.699115
H      1.239357   -1.861757    0.885496
H      1.910917    1.027452   -1.317063
H      4.118386    2.078603   -1.594020
H      6.019794    1.392092   -0.160362
H      5.702329   -0.358513    1.565594
H      3.488243   -1.408324    1.878123
