19

C      2.259108   -0.819679   -0.562256
C      1.063542   -0.430549    0.312505
O      0.288622    0.549015   -0.348818
C     -0.891849    0.826394    0.381170
C     -2.063794    0.024410   -0.187011
N     -3.303264    0.394592    0.488637
N      3.175952    0.301736   -0.762004
H      2.809881   -1.653909   -0.076464
H      1.897127   -1.180502   -1.549467
H      0.464093   -1.350343    0.499672
H      1.439240   -0.040103    1.285515
H     -0.793413    0.643839    1.478281
H     -1.117529    1.907630    0.262291
H     -2.159876    0.242450   -1.273303
H     -1.877490   -1.065219   -0.062677
H     -3.261771    0.031961    1.469084
H     -4.086111   -0.114173    0.017620
H      2.666405    1.078713   -1.241914
H      3.491130    0.653735    0.171240
