48

C      0.516397    4.186796    1.284463
C      1.309537    3.232421    0.441874
C      1.120069    1.898511    0.440125
C      1.969783    1.039052   -0.483024
C      2.480515   -0.274256    0.167415
C      2.148543   -1.605010   -0.461922
O      1.441588   -1.097377    0.649263
C      1.301346   -1.657056   -1.708535
O      1.807758   -1.256637   -2.789285
O      0.000508   -2.182758   -1.738317
C     -0.675083   -2.812236   -0.648516
C     -1.837414   -1.977003   -0.180322
C     -2.657025   -2.348332    0.785024
C     -3.780403   -1.384154    0.913311
N     -3.678778   -0.493554   -0.263078
C     -2.335215   -0.716545   -0.813940
C     -1.498934    0.525163   -0.490590
C     -2.535804    1.627353   -0.465913
C     -3.793150    0.943553    0.048720
O     -0.895140    0.410076    0.802558
C      0.085699    1.274682    1.305516
O      0.132448    1.465615    2.549209
C      2.956194   -2.858693   -0.107299
C      3.659681   -0.183192    1.156473
O      3.487633    0.890287    2.040511
H     -0.568156    4.072561    1.079420
H      0.811833    5.229585    1.044314
H      0.718111    4.006814    2.360739
H      2.056402    3.666457   -0.212816
H      1.415844    0.867339   -1.420444
H      2.875838    1.600851   -0.799295
H     -1.071748   -3.784838   -1.007910
H      0.005362   -3.037780    0.196568
H     -2.533044   -3.242100    1.388593
H     -3.678139   -0.855980    1.885991
H     -4.747795   -1.927481    0.884544
H     -2.415810   -0.851752   -1.915209
H     -0.748175    0.698428   -1.282944
H     -2.707000    2.000540   -1.500154
H     -2.236691    2.478318    0.182288
H     -3.904184    1.149137    1.136105
H     -4.686216    1.359636   -0.464175
H      2.582394   -3.732469   -0.681944
H      4.023428   -2.700481   -0.367970
H      2.871072   -3.107635    0.971877
H      4.588732   -0.013102    0.573910
H      3.799878   -1.120522    1.738128
H      2.817313    0.597768    2.711672
