27

C      4.785940   -0.198648   -0.443981
C      4.175439   -0.293915    0.809706
C      2.832193    0.063458    0.964316
C      2.094001    0.531200   -0.135484
C      2.709292    0.607814   -1.395967
C      4.052759    0.249457   -1.546325
C      0.642107    0.876590    0.019776
O     -0.143022   -0.290203   -0.208424
C     -1.543580   -0.329240   -0.144492
C     -2.318960    0.807518    0.158050
C     -3.713488    0.714934    0.209321
C     -4.348121   -0.509148   -0.039932
C     -3.581020   -1.638793   -0.340405
C     -2.186761   -1.548332   -0.392151
O     -5.736427   -0.612825    0.008459
H      5.825167   -0.476984   -0.562287
H      4.741977   -0.648459    1.661075
H      2.368339   -0.024582    1.939053
H      2.149682    0.943900   -2.260204
H      4.524351    0.315428   -2.518303
H      0.360825    1.667820   -0.709278
H      0.452179    1.263250    1.045008
H     -1.855424    1.764486    0.354610
H     -4.299561    1.594769    0.442756
H     -4.065471   -2.587428   -0.533951
H     -1.602544   -2.429423   -0.625773
H     -6.319872    0.187356    0.223385
