24

C      3.327126    0.387249    0.981529
C      2.590239   -0.554367    0.091625
O      2.759626   -1.797253    0.220683
O      1.683765   -0.047001   -0.845502
C      0.855477   -0.871258   -1.665121
C     -0.295004   -1.480120   -0.856575
C     -1.151269   -0.408742   -0.233667
C     -2.173661    0.202471   -0.978673
C     -2.947184    1.219648   -0.410681
C     -2.700548    1.638784    0.899616
C     -1.678045    1.043336    1.643392
C     -0.902677    0.025403    1.079649
H      4.340872   -0.008646    1.202295
H      3.427967    1.375534    0.486101
H      2.766329    0.511583    1.931118
H      1.461694   -1.678686   -2.130403
H      0.437364   -0.250088   -2.485784
H      0.110388   -2.154172   -0.071589
H     -0.916010   -2.109703   -1.530351
H     -2.369008   -0.107454   -1.997856
H     -3.735711    1.685326   -0.987602
H     -3.299138    2.427254    1.337166
H     -1.484190    1.372598    2.656046
H     -0.108404   -0.421696    1.664586
