30

C     -3.915663    0.991218    0.246390
C     -2.457224    0.660020    0.578726
C     -2.371260   -0.484572    1.592113
C     -1.691523    0.316953   -0.668327
O     -2.095382   -0.608744   -1.425470
O     -0.524535    1.027382   -0.970655
C      0.289900    0.759221   -2.111980
C      1.087567   -0.538433   -1.940306
C      1.917697   -0.510670   -0.683719
C      3.130527    0.197676   -0.651669
C      3.883665    0.251349    0.525434
C      3.429087   -0.395278    1.678166
C      2.220306   -1.096434    1.655896
C      1.465195   -1.153925    0.480619
H     -4.433751    0.107703   -0.185246
H     -3.959932    1.826965   -0.484554
H     -4.454015    1.306058    1.165765
H     -1.997652    1.562424    1.039011
H     -2.919132   -0.215045    2.520183
H     -1.311054   -0.675704    1.862186
H     -2.811027   -1.415971    1.174519
H      0.995998    1.605798   -2.248485
H     -0.341571    0.698434   -3.024876
H      0.394311   -1.406789   -1.928405
H      1.753081   -0.672225   -2.820639
H      3.489242    0.709387   -1.536207
H      4.818130    0.797107    0.544861
H      4.012269   -0.351242    2.588876
H      1.867299   -1.594097    2.549868
H      0.529449   -1.698564    0.477924
