29

C      4.336040    0.394095    1.565531
C      3.938509    1.611487    1.005686
C      2.793968    1.673957    0.204588
C      2.041193    0.514889   -0.044602
C      2.443848   -0.704538    0.525460
C      3.588823   -0.762611    1.326283
C      0.799776    0.590758   -0.892967
O     -0.203144    1.347362   -0.240462
C     -0.969510    0.535009    0.629495
C     -2.100771   -0.119722   -0.117614
C     -3.146148    0.661881   -0.635771
C     -4.190536    0.060080   -1.344801
C     -4.195940   -1.323290   -1.544196
C     -3.156166   -2.106976   -1.036013
C     -2.110082   -1.509166   -0.326091
H      5.221625    0.347448    2.186024
H      4.516320    2.507161    1.193768
H      2.493178    2.623538   -0.220706
H      1.871518   -1.607675    0.353023
H      3.895882   -1.704187    1.762887
H      1.058003    1.109225   -1.840458
H      0.446001   -0.422305   -1.195304
H     -1.404522    1.189069    1.414477
H     -0.350114   -0.213679    1.176004
H     -3.150361    1.735207   -0.490838
H     -4.994807    0.666386   -1.741046
H     -5.004495   -1.787551   -2.093878
H     -3.159819   -3.177768   -1.193702
H     -1.308270   -2.128084    0.057301
