16

C      0.465886    0.705850   -0.021274
C      0.422134   -0.693060   -0.215403
N     -0.750896   -1.358640   -0.018673
C     -1.874985   -0.709157    0.383906
O     -2.943585   -1.353178    0.563180
N     -1.848189    0.631972    0.597358
C     -0.709640    1.348615    0.402847
O     -0.720310    2.594322    0.597942
N      1.587439   -1.441087   -0.588825
N      1.654164    1.473658   -0.271367
H     -0.787965   -2.393107   -0.166137
H     -2.718262    1.120998    0.910110
H      1.504146   -2.457104   -0.814768
H      2.549869   -1.044308   -0.548869
H      2.467842    1.089923   -0.796693
H      1.702352    2.484303   -0.013337
