19

C     -2.634881   -0.614571   -0.505449
C     -1.637432   -0.693754   -1.481236
C     -0.381899   -0.123647   -1.248315
C     -0.119271    0.538713   -0.037083
C     -1.123310    0.603261    0.943883
C     -2.377436    0.031819    0.706665
C      1.239808    1.124060    0.230047
C      2.109074    0.116593    0.917835
O      2.173468    0.099633    2.176013
N      2.830968   -0.853186    0.158902
H     -3.605680   -1.057360   -0.686955
H     -1.836159   -1.199601   -2.417242
H      0.384299   -0.198844   -2.009964
H     -0.933806    1.094020    1.890583
H     -3.148765    0.087367    1.463928
H      1.146178    2.033861    0.862677
H      1.718495    1.441439   -0.721748
H      2.772655   -0.864973   -0.883509
H      3.423693   -1.564830    0.640968
