39

C      2.917602   -0.187684   -1.331813
C      1.543736   -0.020596   -1.087316
C      1.069314   -0.212826    0.212094
C      1.928469   -0.557884    1.228670
C      3.294757   -0.731246    1.020506
C      3.797056   -0.542726   -0.282308
N      5.192833   -0.710049   -0.542499
C      1.133518   -0.677899    2.423581
O      1.558559   -0.980722    3.568781
O     -0.197428   -0.406550    2.128221
C     -0.346164   -0.095994    0.732917
C     -1.235669   -1.134527    0.067778
C     -2.291318   -0.741105   -0.778142
C     -3.067173   -1.705486   -1.430710
C     -2.808333   -3.066107   -1.244577
C     -1.764518   -3.465266   -0.401664
C     -0.981784   -2.507615    0.247934
O     -3.593081   -4.011848   -1.900517
O     -2.586996    0.608862   -0.969969
C     -1.916640    1.626856   -0.291039
C     -0.845461    1.331580    0.575070
C     -0.207372    2.386666    1.254716
C     -0.629836    3.705918    1.073490
C     -1.691620    3.991513    0.207216
C     -2.330370    2.951094   -0.472825
O     -2.119148    5.303400    0.015685
H      3.298586   -0.041693   -2.334569
H      0.868217    0.251017   -1.888104
H      3.947684   -1.003163    1.840157
H      5.851553   -0.972043    0.224497
H      5.577313   -0.573130   -1.503852
H     -3.876614   -1.395653   -2.079847
H     -1.555109   -4.517007   -0.253517
H     -0.170344   -2.837543    0.884139
H     -3.430830   -5.005591   -1.786297
H      0.625019    2.189148    1.918159
H     -0.127460    4.505736    1.602515
H     -3.154110    3.170563   -1.140551
H     -1.676842    6.079598    0.493992
