35

C     -4.578607    0.283328    1.515002
O     -4.105602    0.760931    2.580322
C     -3.659092   -0.340810    0.498115
C     -3.177927    0.722600   -0.521794
C     -2.471649    0.157992   -1.788768
C     -1.231935   -0.769480   -1.609471
C     -0.003118   -0.116292   -0.907056
C      1.228417   -1.070044   -0.839001
C      2.586061   -0.391849   -0.489072
C      2.618500    0.373048    0.866479
C      4.007717    0.950908    1.261760
C      5.130284   -0.081649    1.500856
F      6.121944    0.491655    2.277620
F      5.707021   -0.465428    0.303339
F      4.652954   -1.199629    2.161331
F      3.835295    1.666472    2.436686
F      4.426317    1.846189    0.290625
F      1.767172    1.461655    0.786118
F      2.161194   -0.452138    1.881084
F      3.521270   -1.410030   -0.463010
F      2.935498    0.476224   -1.511029
F      1.407769   -1.692445   -2.063955
F      0.970659   -2.063774    0.092683
F      0.341626    1.042078   -1.583952
F     -0.352037    0.207709    0.388981
F     -0.857581   -1.148683   -2.889180
F     -1.598193   -1.922491   -0.937655
F     -2.096140    1.237296   -2.572907
F     -3.414563   -0.551120   -2.517197
F     -2.358668    1.640214    0.112583
F     -4.288153    1.424641   -0.969027
F     -4.334759   -1.360199   -0.151562
F     -2.584926   -0.891424    1.173972
O     -5.946326    0.389683    1.273086
H     -6.360423    0.048645    0.413993
