19

C     -0.413541   -1.302051   -0.379844
C      0.918358   -1.253961    0.396879
C      1.521881    0.150032    0.591952
C      1.213144    1.072179   -0.552848
O      2.139790    1.466539   -1.309771
N     -0.138578    1.472132   -0.814032
C     -1.232493    1.137741    0.099893
C     -1.512628   -0.382265    0.184331
H     -0.238725   -1.069362   -1.452985
H     -0.788558   -2.348136   -0.347820
H      1.653496   -1.880509   -0.153875
H      0.775733   -1.723257    1.394634
H      2.622727    0.059262    0.719831
H      1.129720    0.595036    1.530722
H     -0.339686    2.069476   -1.647467
H     -0.996110    1.532880    1.111213
H     -2.156645    1.658991   -0.232479
H     -2.446252   -0.595414   -0.380904
H     -1.711634   -0.659312    1.242571
