23

C      0.087022    2.743624    0.099271
C      0.041876    1.244495    0.047247
C      1.226722    0.508821   -0.102913
C      1.186872   -0.895342   -0.188843
C     -0.048749   -1.549470   -0.135655
C     -1.240767   -0.828592   -0.005666
C     -1.190498    0.575285    0.079478
O     -2.448240   -1.542023    0.032727
C     -3.733523   -0.942834    0.161362
O      2.345645   -1.673837   -0.328994
C      3.666482   -1.146305   -0.397007
H      1.032973    3.091890    0.566145
H     -0.757785    3.141132    0.701245
H      0.020473    3.150691   -0.931213
H      2.170964    1.034905   -0.151253
H     -0.083427   -2.629948   -0.201524
H     -2.101142    1.152372    0.171099
H     -3.798310   -0.379197    1.116017
H     -4.505794   -1.739025    0.165956
H     -3.926640   -0.265319   -0.697071
H      4.386042   -1.983516   -0.504975
H      3.765425   -0.476825   -1.277483
H      3.904380   -0.590984    0.534805
