20

C     -3.433008   -0.467310    0.026780
C     -2.058530    0.010164   -0.432026
C     -1.077020    0.082585    0.740858
O      0.187804    0.576587    0.304624
C      1.108219   -0.192683   -0.416224
O      0.881359   -1.408864   -0.662350
C      2.399467    0.423617   -0.850426
C      3.447317    0.302790    0.249509
H     -3.854526    0.233973    0.778184
H     -4.121078   -0.510442   -0.843655
H     -3.359455   -1.482286    0.472347
H     -2.157707    1.017191   -0.891971
H     -1.673393   -0.690323   -1.203420
H     -0.954731   -0.916843    1.213581
H     -1.476203    0.779634    1.508247
H      2.767623   -0.080597   -1.770122
H      2.234170    1.496705   -1.086232
H      4.396689    0.768638   -0.089029
H      3.103591    0.823784    1.168835
H      3.639411   -0.766320    0.483479
