16

C     -0.591945    1.248381   -0.219066
C      0.800298    1.137782   -0.147720
C      1.398921   -0.111130    0.071689
C      0.591945   -1.248381    0.219068
C     -0.800298   -1.137781    0.147724
C     -1.398921    0.111131   -0.071686
N     -2.822577    0.224226   -0.144642
N      2.822577   -0.224226    0.144640
H     -1.041274    2.218776   -0.388934
H      1.411733    2.023910   -0.263229
H      1.041273   -2.218776    0.388934
H     -1.411732   -2.023910    0.263231
H     -3.277648    1.150068   -0.307738
H     -3.431949   -0.617058   -0.036096
H      3.277648   -1.150070    0.307728
H      3.431950    0.617058    0.036097
