48

C      0.040788   -1.055113   -2.052858
C      0.463648   -1.841297   -0.795621
C      1.628867   -1.219421   -0.005562
C      2.925354   -1.131281   -0.828925
C      4.141832   -0.747367    0.027975
C      4.065249    0.700425    0.544178
C      5.384953    1.171955    1.174401
C      5.691957    0.467859    2.501771
O      6.814269    1.048809    3.107986
C     -0.349720    0.416050   -1.806034
C     -1.474508    0.625474   -0.776513
C     -2.802310   -0.015834   -1.205338
C     -3.927938    0.348659   -0.230134
C     -5.254902   -0.298684   -0.653393
C     -6.385013   -0.014885    0.344746
C     -6.785608    1.431577    0.336024
O     -7.566683    1.860289   -0.553710
O     -6.275143    2.316009    1.281979
H      0.866699   -1.081017   -2.794930
H     -0.809852   -1.584716   -2.531612
H     -0.410043   -1.953557   -0.119241
H      0.750471   -2.869615   -1.106130
H      1.810294   -1.857986    0.886382
H      1.337697   -0.215495    0.365494
H      3.128612   -2.122181   -1.290769
H      2.809072   -0.392047   -1.650119
H      4.228534   -1.454741    0.880291
H      5.052129   -0.861014   -0.600493
H      3.831869    1.377113   -0.306801
H      3.247078    0.799336    1.289386
H      6.223695    1.013438    0.461890
H      5.308449    2.264825    1.364663
H      4.826999    0.576893    3.190139
H      5.869431   -0.618647    2.339087
H      7.607607    0.725950    2.605694
H     -0.664895    0.861257   -2.774847
H      0.546240    0.985463   -1.479549
H     -1.166672    0.235621    0.216615
H     -1.625740    1.721321   -0.662471
H     -2.691985   -1.121113   -1.227055
H     -3.071384    0.336335   -2.225479
H     -3.656354   -0.000022    0.790715
H     -4.045161    1.453904   -0.207316
H     -5.548130    0.063602   -1.663605
H     -5.116585   -1.400395   -0.715225
H     -6.075561   -0.318549    1.368167
H     -7.268421   -0.631638    0.071192
H     -5.629185    2.004451    1.997341
