20

C      2.495685    0.037520    0.931172
C      2.292574    0.129316   -0.555989
C      3.338184    0.368347   -1.356664
C      0.921756    0.025326   -1.104523
O      0.723624    0.087760   -2.350006
O     -0.157805   -0.142162   -0.230893
C     -1.503570   -0.248398   -0.681206
C     -2.417827   -0.453870    0.523043
C     -3.811492    0.023773    0.385811
O     -2.835921    0.769567    1.079790
H      3.554588   -0.181526    1.188207
H      2.202953    0.998507    1.403481
H      1.871008   -0.778057    1.352727
H      3.219113    0.465004   -2.428424
H      4.337232    0.474630   -0.952309
H     -1.601533   -1.127309   -1.353672
H     -1.777422    0.670007   -1.247478
H     -2.201298   -1.221977    1.295087
H     -4.550722   -0.418425    1.085463
H     -4.099126    0.521967   -0.564167
