23

C      2.138302   -1.010544    0.984481
N      1.869112    0.149563    0.140331
C      2.685596    1.202592   -0.060370
N      2.180042    2.090104   -0.943841
C      0.998194    1.558138   -1.317974
C      0.810835    0.359170   -0.664537
C     -0.396353   -0.531415   -0.779268
C     -1.457362   -0.194499    0.288238
C     -2.030259    1.181071    0.061888
O     -1.827689    2.096694    0.902267
O     -2.772265    1.452610   -1.081521
N     -2.531095   -1.194542    0.276699
H      2.986783   -0.802118    1.670512
H      1.244670   -1.252835    1.596050
H      2.395187   -1.882475    0.347364
H      3.643830    1.327216    0.427525
H      0.318170    2.018368   -2.022578
H     -0.073263   -1.588066   -0.663678
H     -0.833635   -0.434632   -1.797242
H     -0.971590   -0.218518    1.290509
H     -3.249752   -0.952671    0.997707
H     -2.987508   -1.236811   -0.664054
H     -2.139950   -2.136400    0.509454
