10

C     -1.233911    0.397325   -0.377848
C     -0.132191   -0.649331   -0.487178
C      1.117151   -0.144883    0.093249
C      2.144248    0.268953    0.570061
H     -2.170074   -0.002126   -0.821711
H     -0.946683    1.320144   -0.926469
H     -1.425211    0.647814    0.687863
H     -0.437913   -1.570053    0.053070
H      0.038846   -0.900209   -1.555294
H      3.045737    0.632366    0.988639
