9

C     -0.958951   -0.313506   -0.022245
C      0.278158    0.565712    0.109916
C      1.495208   -0.220335   -0.119857
N      2.455559   -0.840147   -0.301070
H     -1.017137   -0.748783   -1.043147
H     -0.932113   -1.134410    0.726414
H     -1.868813    0.297915    0.154715
H      0.316399    1.004674    1.129160
H      0.231689    1.388880   -0.633887
