21

C     -1.912776   -0.709392   -1.167733
C     -1.347510    0.364578   -0.228542
C      0.154907    0.210556   -0.069351
C      1.018122    1.230756   -0.509551
C      2.402731    1.097641   -0.366897
C      2.940172   -0.052654    0.215033
C      2.094067   -1.072828    0.655405
C      0.708804   -0.945094    0.515387
N     -2.020687    0.325721    1.075668
H     -2.995481   -0.530114   -1.338836
H     -1.787932   -1.724465   -0.735042
H     -1.393444   -0.669359   -2.149152
H     -1.567611    1.350602   -0.698159
H      0.621873    2.130421   -0.963584
H      3.059529    1.887406   -0.708119
H      4.012238   -0.153646    0.324335
H      2.511795   -1.964162    1.105476
H      0.072237   -1.748835    0.861522
H     -1.927264   -0.616419    1.519734
H     -3.036959    0.541222    0.953132
H     -1.606812    1.048065    1.709275
