17

C     -1.752669   -0.938797   -0.136994
N     -0.585009   -0.071915   -0.364271
C     -0.958144    1.330614   -0.111181
C      0.554640   -0.485536    0.487441
C      1.864780   -0.411416   -0.302309
O      2.184034    0.912521   -0.632652
H     -2.602956   -0.618714   -0.777499
H     -2.069752   -0.913584    0.929722
H     -1.509301   -1.985483   -0.420244
H     -1.319196    1.470457    0.932421
H     -0.092459    2.002537   -0.284233
H     -1.758939    1.644889   -0.814726
H      0.446534   -1.541648    0.825811
H      0.633660    0.130873    1.412219
H      1.764207   -1.000980   -1.238372
H      2.688597   -0.865337    0.294331
H      2.511973    1.341519    0.200535
