13

C     -0.621646   -0.892768   -0.025464
C     -1.013968    0.507632    0.386292
N      0.219604    1.283148    0.462505
N      1.138891    0.667835   -0.406855
C      0.838315   -0.759893   -0.393490
H     -0.751851   -1.607437    0.816842
H     -1.223820   -1.229900   -0.897767
H     -1.515089    0.502840    1.377829
H     -1.705315    0.946976   -0.369096
H      0.036780    2.244563    0.091994
H      2.093683    0.815071   -0.004718
H      1.470050   -1.284852    0.359453
H      1.034367   -1.193215   -1.397525
