15

C      2.166602    0.001919   -0.012362
N      0.694332    0.004501   -0.032824
C      0.005167    1.189048    0.043300
O      0.617515    2.290250    0.109065
C     -1.389430    1.191855    0.052122
C     -2.061261   -0.022797    0.002465
N     -1.359720   -1.182628   -0.043931
C      0.001834   -1.181585   -0.052542
O      0.616330   -2.283819   -0.075931
H      2.574896   -0.862400   -0.578555
H      2.523963   -0.048500    1.037666
H      2.577725    0.914850   -0.493857
H     -1.944336    2.120737    0.102931
H     -3.143811   -0.042482    0.010436
H     -1.879807   -2.088951   -0.067982
