34

C      4.932790    0.132283   -1.159250
C      4.375804    0.788042    0.103983
C      2.841660    0.738971    0.170617
C      2.306555   -0.687015    0.389625
C      0.802574   -0.709588    0.705323
C     -0.058706   -0.285526   -0.497779
C     -1.555181   -0.564570   -0.283348
C     -2.189420    0.384383    0.751182
C     -3.697451    0.134841    0.971629
C     -4.536815    0.492526   -0.264802
O     -5.900585    0.510268    0.061556
O     -3.930740   -1.203855    1.327277
H      4.748416   -0.961909   -1.147580
H      6.029770    0.297352   -1.207406
H      4.468603    0.576755   -2.065209
H      4.693679    1.853206    0.112798
H      4.814182    0.299974    1.001450
H      2.515190    1.382793    1.016401
H      2.420216    1.167429   -0.763978
H      2.843189   -1.148019    1.247557
H      2.502958   -1.312365   -0.507488
H      0.602262   -0.048055    1.574764
H      0.530865   -1.746953    0.999422
H      0.086870    0.795057   -0.711828
H      0.269442   -0.855131   -1.394782
H     -2.061311   -0.428639   -1.261956
H     -1.697351   -1.622704    0.026227
H     -1.680490    0.254506    1.729418
H     -2.033697    1.439092    0.434713
H     -4.030900    0.801159    1.801844
H     -4.353003   -0.228677   -1.092730
H     -4.255301    1.504646   -0.625958
H     -6.201289   -0.435599    0.086001
H     -3.602785   -1.314675    2.257909
