13

C      2.482711   -0.058639    0.099833
C      1.244932    0.261025   -0.667639
O      1.337581    0.879213   -1.762685
O     -0.001907   -0.087832   -0.131845
C     -1.235965    0.151870   -0.750737
O     -1.303820    0.675475   -1.895769
C     -2.489852   -0.270182   -0.063033
H      2.790272    0.828329    0.691662
H      3.301872   -0.337672   -0.596096
H      2.293274   -0.908404    0.788684
H     -2.799808   -1.267456   -0.438454
H     -2.320166   -0.329922    1.032476
H     -3.299125    0.464194   -0.260444
