9

C     -0.669094    0.757500    0.009104
C      0.658096    0.764761    0.060210
C      1.098224   -0.626835    0.013269
O      2.295604   -1.012837    0.041393
O      0.010700   -1.480923   -0.067472
C     -1.089079   -0.638802   -0.070937
O     -2.280789   -1.037877   -0.134750
H     -1.308165    1.630415    0.024667
H      1.284503    1.644599    0.124517
