9

C      0.647176    0.694863    0.186219
C      1.071056   -0.614121    0.195157
N      0.012489   -1.430415    0.021136
C     -1.037851   -0.590550   -0.090267
N     -0.681672    0.703284    0.006134
H      1.262352    1.577326    0.302493
H      2.090084   -0.954539    0.320853
H     -2.056419   -0.923091   -0.240902
H     -1.307215    1.537244   -0.047819
