22

C     -2.569956    0.981034   -0.265393
C     -3.128931   -0.304833   -0.092281
C     -2.332995   -1.373308    0.360035
C     -0.989661   -1.115989    0.630699
C     -0.448227    0.133365    0.465790
C     -1.210353    1.210952    0.013741
C      0.886341    0.038778    0.808946
C      1.092909   -1.293399    1.155170
N     -0.060632   -1.992265    1.051117
C      1.927673    1.112213    0.730743
C      2.450567    1.218388   -0.667929
O      1.998958    2.102224   -1.442750
O      3.405955    0.320836   -1.135479
H     -3.191213    1.794582   -0.616583
H     -4.175688   -0.470101   -0.311715
H     -2.750879   -2.363173    0.490275
H     -0.774907    2.192579   -0.119996
H      2.037412   -1.728204    1.455448
H     -0.194661   -3.009557    1.245062
H      2.764747    0.874764    1.421429
H      1.491762    2.082830    1.051304
H      3.771780   -0.411714   -0.538993
