36

C      2.843775   -2.593738   -1.538736
C      2.794352   -1.339846   -0.655152
C      3.980321   -0.422405   -0.990272
C      1.431998   -0.625835   -0.835745
C      1.215070    0.613782    0.064121
C     -0.126696    1.244279   -0.254040
O     -0.134890    2.276582   -0.978987
N     -1.386931    0.673290    0.165993
C     -1.554077   -0.348215    1.192298
C     -3.053956   -0.600602    1.292617
C     -3.663923    0.014398    0.037905
C     -2.655590    1.058019   -0.439613
C     -3.052263    2.436975    0.009960
O     -3.517097    3.260401   -0.822736
O     -2.937686    2.795636    1.350241
N      1.317743    0.279134    1.486279
H      2.011102   -3.281522   -1.277955
H      2.760497   -2.320613   -2.612866
H      3.798588   -3.139496   -1.380718
H      2.896409   -1.681260    0.397182
H      4.931473   -0.995916   -0.962599
H      4.069304    0.392218   -0.242697
H      3.860571    0.020526   -2.002248
H      0.623104   -1.360618   -0.642975
H      1.332981   -0.311923   -1.899266
H      1.997257    1.368072   -0.177416
H     -1.170174    0.014830    2.168980
H     -1.033871   -1.282220    0.898398
H     -3.461620   -0.086803    2.191131
H     -3.280139   -1.686969    1.360705
H     -3.767395   -0.775702   -0.738481
H     -4.671134    0.441295    0.241974
H     -2.574086    1.021951   -1.549352
H     -3.211992    3.717934    1.666537
H      2.320618    0.094316    1.714570
H      1.068356    1.130046    2.042101
