24

C      2.995107   -1.195053   -0.542405
C      2.018199   -0.496953    0.407575
C      0.916277    0.220709   -0.383392
N     -0.083439    0.784602    0.533778
C     -1.255309    1.308143   -0.191475
C     -2.519524    0.517600    0.184054
C     -2.435643   -0.935502   -0.285144
O     -2.716354    0.543429    1.573909
O      2.712419    0.434204    1.196566
H      2.460178   -1.944913   -1.163511
H      3.485260   -0.453322   -1.208889
H      3.778752   -1.721971    0.042198
H      1.539175   -1.267263    1.056760
H      0.429571   -0.517350   -1.060086
H      1.363410    1.029561   -1.005453
H      0.362643    1.576672    1.054172
H     -1.120781    1.289222   -1.297935
H     -1.420139    2.375642    0.080083
H     -3.393390    0.985567   -0.326559
H     -1.612892   -1.469961    0.235853
H     -3.390487   -1.456349   -0.060359
H     -2.262469   -0.978052   -1.381651
H     -3.040640    1.454207    1.800406
H      3.190077   -0.082869    1.896889
