23

C     -3.049522   -0.984068    0.540926
C     -2.488901    0.433745    0.648745
C     -1.283891    0.668425   -0.275132
C     -0.029072   -0.086508    0.187893
C      1.182301    0.276320   -0.684059
C      2.437015   -0.516190   -0.294463
C      2.954037   -0.111269    1.054868
O      2.734989   -0.841144    2.057268
O      3.652091    1.081865    1.216242
H     -3.284552   -1.230245   -0.516386
H     -2.326940   -1.724421    0.942036
H     -3.984008   -1.057028    1.136214
H     -2.209562    0.644902    1.703869
H     -3.292332    1.147739    0.365178
H     -1.543530    0.370654   -1.314842
H     -1.064850    1.758797   -0.281714
H      0.184937    0.174949    1.246951
H     -0.205927   -1.181140    0.120395
H      0.944038    0.048392   -1.746144
H      1.390385    1.366626   -0.610000
H      3.230729   -0.326377   -1.048420
H      2.218946   -1.606611   -0.310004
H      3.833620    1.692587    0.428695
