15

C     -1.088039   -0.990332   -1.068606
C     -0.651131   -0.254043   -0.038906
C      0.661321   -0.597950    0.619036
C      1.774998    0.186751   -0.004538
O      2.147379    1.271532    0.515178
O      2.378991   -0.252213   -1.179103
C     -1.413576    0.929551    0.423325
O     -2.514861    1.235437   -0.110067
O     -0.914797    1.718241    1.456495
H     -2.015422   -0.758633   -1.576895
H     -0.520397   -1.841337   -1.424255
H      0.610882   -0.380680    1.707932
H      0.879235   -1.684409    0.524914
H      2.089014   -1.113045   -1.627386
H     -1.423597    2.531129    1.782878
