21

C      3.186711   -0.634522   -0.568498
O      2.217963    0.408119   -0.518733
C      0.859704    0.224551   -0.210443
C      0.333302   -1.046338    0.082306
C     -1.025799   -1.203678    0.385180
C     -1.862820   -0.081844    0.396877
C     -1.363191    1.200842    0.110856
C      0.010508    1.348256   -0.197594
O      0.528098    2.610953   -0.495420
N     -2.261174    2.332088    0.136386
O     -1.839634    3.498354   -0.004950
O     -3.609484    2.144844    0.340185
C     -1.588412   -2.532825    0.692987
O     -0.863955   -3.563524    0.691902
H      3.272063   -1.124509    0.424388
H      2.905956   -1.380367   -1.341857
H      4.172022   -0.200763   -0.835571
H      0.977067   -1.915303    0.074822
H     -2.911345   -0.211524    0.635190
H      1.503411    2.761810   -0.723067
H     -2.640993   -2.634622    0.925054
