41

C     -6.218255   -0.851695   -0.510391
C     -5.463675    0.041137    0.474547
C     -4.159925    0.606310   -0.110659
C     -3.066579   -0.466465   -0.257326
C     -1.749558    0.105491   -0.807874
C     -0.936480    0.850932    0.264586
C      0.337508    1.505196   -0.300307
C      1.372313    0.523340   -0.885648
C      1.856251   -0.573176    0.083781
C      2.465395   -0.054139    1.402010
C      3.697972    0.844952    1.219649
C      4.821247    0.120655    0.544378
O      5.089548    0.365897   -0.663587
O      5.542683   -0.843549    1.253896
C      6.601843   -1.590942    0.668752
H     -7.204159   -1.124903   -0.078731
H     -6.389199   -0.316789   -1.468716
H     -5.656461   -1.788582   -0.703827
H     -5.250902   -0.527274    1.405982
H     -6.124428    0.893103    0.745551
H     -3.805437    1.404070    0.574438
H     -4.364487    1.077396   -1.097081
H     -2.883493   -0.963918    0.720400
H     -3.417975   -1.243117   -0.969078
H     -1.958142    0.778091   -1.668609
H     -1.147555   -0.748440   -1.184456
H     -1.555357    1.662707    0.699454
H     -0.679444    0.160843    1.095448
H      0.046359    2.222793   -1.098102
H      0.815721    2.108063    0.500558
H      0.946645    0.035590   -1.787776
H      2.246655    1.105193   -1.246095
H      1.010147   -1.250998    0.324202
H      2.608314   -1.199497   -0.442536
H      2.751869   -0.930807    2.023402
H      1.695782    0.499747    1.979412
H      4.047464    1.173991    2.221535
H      3.432212    1.762890    0.653980
H      6.220833   -2.178971   -0.193000
H      7.016744   -2.288604    1.424786
H      7.408002   -0.906519    0.329411
