29

C      4.062299    0.323700   -1.191141
C      3.826955   -0.302813    0.183003
C      2.560118    0.229719    0.870122
C      1.271273   -0.265873    0.197623
C      0.033822    0.185276    0.983125
C     -1.255026   -0.300464    0.308766
C     -2.492906    0.160529    1.092428
C     -3.800154   -0.407247    0.518553
C     -4.172274    0.210947   -0.828866
H      4.066309    1.432026   -1.117996
H      5.046946   -0.007443   -1.583283
H      3.279894    0.002535   -1.909326
H      4.701236   -0.065743    0.827318
H      3.773139   -1.408818    0.084236
H      2.577809    1.341762    0.882470
H      2.571331   -0.119027    1.926132
H      1.209051    0.139814   -0.834764
H      1.285958   -1.376738    0.143048
H      0.084880   -0.223904    2.016326
H      0.021249    1.296112    1.043062
H     -1.294800    0.105531   -0.724608
H     -1.244083   -1.411380    0.254355
H     -2.539827    1.271688    1.107620
H     -2.401821   -0.187125    2.144923
H     -3.725014   -1.511487    0.414113
H     -4.620636   -0.193383    1.237429
H     -5.178132   -0.147448   -1.133435
H     -4.200129    1.318838   -0.754319
H     -3.447467   -0.089583   -1.613359
