23

C     -3.845468   -0.038465   -0.784974
C     -2.456756   -0.655606   -0.727244
O     -1.939343   -0.512729    0.579239
C     -0.596934   -0.958639    0.633592
C      0.357722    0.227613    0.527165
O      1.685382   -0.233194    0.670254
C      2.604846    0.817621    0.435904
C      3.093031    0.795715   -1.014243
O      3.726280   -0.421688   -1.302232
H     -3.791260    1.042224   -0.534205
H     -4.518149   -0.547311   -0.062285
H     -4.264282   -0.150523   -1.807358
H     -1.813910   -0.137639   -1.474870
H     -2.540976   -1.733458   -0.993524
H     -0.344562   -1.723490   -0.139885
H     -0.439869   -1.446020    1.619402
H      0.208534    0.717647   -0.461110
H      0.113872    0.951094    1.337969
H      3.480557    0.662696    1.101403
H      2.200342    1.827851    0.684100
H      3.826264    1.617301   -1.157536
H      2.247149    0.975890   -1.715440
H      3.007529   -1.076891   -1.501721
