33

C      1.636207   -0.457212   -0.011737
C      2.098840   -1.736847   -0.717865
O      3.496110   -1.753239   -0.830085
N      0.153975   -0.336850   -0.059076
C     -0.492556   -1.270413    0.906587
C     -1.301047   -2.328484    0.155250
O     -1.882910   -3.211869    1.072903
C     -0.415053    1.063159   -0.106644
C     -0.244024    1.825812    1.246433
O      1.081876    1.795209    1.697479
C     -1.944000    0.977600   -0.424956
O     -2.526865    2.253660   -0.487666
C      0.225255    1.878975   -1.288386
O      1.389411    2.559443   -0.898462
H      2.143487    0.374938   -0.525456
H      2.006536   -0.458447    1.037282
H      1.662925   -1.768009   -1.739089
H      1.753882   -2.640202   -0.167706
H      3.850768   -1.965097    0.072825
H     -1.151298   -0.754398    1.630436
H      0.252826   -1.801903    1.540262
H     -2.097259   -1.844166   -0.449267
H     -0.632478   -2.891867   -0.531770
H     -2.386902   -3.876065    0.534494
H     -0.553735    2.887198    1.111801
H     -0.905979    1.399862    2.030808
H      1.098228    2.304844    2.548946
H     -2.491236    0.399379    0.347460
H     -2.085241    0.457641   -1.400067
H     -3.473517    2.115003   -0.752022
H      0.453584    1.188086   -2.131950
H     -0.479398    2.640217   -1.689914
H      1.759589    2.974042   -1.720849
