29

C      3.782114    0.109172    1.304254
C      3.516480    0.641173   -0.103767
C      2.222071    1.464076   -0.193996
C      0.960802    0.598529   -0.054521
C     -0.306226    1.435467   -0.286929
C     -1.595877    0.645095   -0.015015
C     -1.858391   -0.441634   -1.072207
C     -3.240452   -1.087673   -0.908605
C     -3.329277   -1.898651    0.351290
O     -2.873151   -3.072047    0.374869
O     -3.879440   -1.355292    1.508729
H      3.026283   -0.652746    1.585976
H      4.782999   -0.370716    1.334088
H      3.766200    0.938455    2.043028
H      3.482464   -0.206507   -0.822219
H      4.367808    1.293848   -0.395219
H      2.226094    2.257116    0.585851
H      2.204363    1.967002   -1.185833
H      1.004579   -0.225391   -0.798144
H      0.922051    0.158845    0.964859
H     -0.289503    2.309835    0.400309
H     -0.316898    1.826369   -1.328090
H     -1.545474    0.189204    0.997577
H     -2.444684    1.363555   -0.019111
H     -1.078970   -1.231454   -1.014885
H     -1.807941    0.015181   -2.084643
H     -3.429622   -1.754836   -1.777347
H     -4.031170   -0.306679   -0.915528
H     -4.237234   -0.407754    1.525229
