29

C      5.298942    0.342621    1.342712
C      4.307166    0.736270    0.253346
O      3.635521   -0.408667   -0.239196
C      2.415589   -0.627349    0.445845
C      1.258556    0.023629   -0.308574
O      0.048864   -0.274803    0.355321
C     -1.027984    0.320052   -0.337422
C     -2.328248   -0.008925    0.383922
O     -3.405723    0.591435   -0.304774
C     -4.640163    0.197494    0.264519
C     -5.240179   -0.960440   -0.525080
H      6.013530   -0.411899    0.950871
H      5.866720    1.237984    1.672767
H      4.764321   -0.083056    2.217403
H      3.618517    1.529473    0.627747
H      4.877119    1.186716   -0.586468
H      2.236779   -1.723134    0.480457
H      2.432802   -0.278463    1.505338
H      1.247306   -0.379199   -1.347480
H      1.426804    1.123968   -0.341018
H     -0.913414    1.428164   -0.367351
H     -1.094348   -0.075084   -1.377332
H     -2.440945   -1.116871    0.417357
H     -2.266551    0.389143    1.422391
H     -5.338028    1.058794    0.198647
H     -4.573119   -0.072575    1.345475
H     -4.590406   -1.857176   -0.450040
H     -6.242294   -1.211362   -0.117852
H     -5.347136   -0.676740   -1.593538
