33

C     -5.063645   -0.775512   -0.486149
C     -4.018502   -1.324552    0.484280
C     -3.579041   -0.291487    1.537308
C     -2.809396    0.906417    0.959372
C     -1.525302    0.485547    0.314674
O     -1.435294    0.459199   -0.943266
O     -0.450326    0.089930    1.118547
C      0.814807   -0.308922    0.595313
C      1.615236    0.912208    0.136684
C      2.965013    0.496536   -0.383128
C      4.063321    0.403994    0.488255
C      5.309052   -0.013300    0.008953
C      5.464413   -0.349727   -1.338682
C      4.373219   -0.273341   -2.208665
C      3.125761    0.143483   -1.733569
H     -4.618388   -0.003157   -1.146767
H     -5.440721   -1.600198   -1.126971
H     -5.920841   -0.340018    0.069962
H     -3.140655   -1.697769   -0.085250
H     -4.461259   -2.194750    1.015539
H     -4.475297    0.084264    2.077373
H     -2.937996   -0.801995    2.289203
H     -2.569901    1.606687    1.787937
H     -3.440917    1.465037    0.236584
H      1.375457   -0.830897    1.400074
H      0.672504   -1.024267   -0.244744
H      1.735542    1.615043    0.989978
H      1.057861    1.452958   -0.658255
H      3.954094    0.653160    1.536544
H      6.153243   -0.079107    0.683112
H      6.428926   -0.673738   -1.707716
H      4.493136   -0.540405   -3.250668
H      2.285896    0.189718   -2.415863
