30

C     -0.028425    1.834911   -1.334762
N     -0.432093    0.680047   -0.516539
C     -1.766552    0.362359   -0.290587
C     -2.811133    1.263785   -0.609228
C     -4.148354    0.916072   -0.406321
C     -4.482770   -0.324589    0.130237
C     -3.482470   -1.224252    0.491817
C     -2.130364   -0.897517    0.306118
C     -1.143486   -1.807734    0.723689
C      0.174727   -1.430537    0.585905
C      0.514640   -0.160740    0.003161
C      1.896511   -0.092035    0.105994
C      2.825801    0.919468   -0.169413
C      4.182356    0.664085    0.093374
C      4.587402   -0.568285    0.642727
C      3.638471   -1.555130    0.953243
C      2.295996   -1.292153    0.685066
N      1.264384   -2.115455    0.986730
H      0.160361    2.715850   -0.686168
H     -0.786951    2.081533   -2.103849
H      0.868407    1.590279   -1.938662
H     -2.615357    2.258343   -0.981450
H     -4.931517    1.619465   -0.659014
H     -5.522597   -0.583422    0.283340
H     -3.766173   -2.174711    0.928617
H     -1.397285   -2.758884    1.176858
H      2.537162    1.892129   -0.534900
H      4.921546    1.427093   -0.113657
H      5.635200   -0.748031    0.845414
H      3.942564   -2.491945    1.402261
