27

C     -2.221261   -1.269204   -1.149567
C     -1.147735   -0.368996   -0.535099
C     -1.359899    1.144255   -0.735434
C     -0.523559    1.756719    0.410896
C      0.142678    0.516518    1.059833
C     -1.026824   -0.462766    0.972450
C      1.203080   -0.126753    0.095356
C      0.266423   -0.687284   -0.935718
O      0.604010   -1.244256   -1.970001
C      2.190547    0.884387   -0.527508
C      2.001244   -1.247916    0.793996
H     -3.218073   -1.020201   -0.727629
H     -2.252663   -1.124498   -2.250208
H     -1.998604   -2.335734   -0.932570
H     -0.997730    1.482558   -1.731577
H     -2.432041    1.418324   -0.619783
H     -1.194692    2.249750    1.149311
H      0.196565    2.521016    0.056950
H      0.508797    0.699874    2.093031
H     -1.938466   -0.105448    1.507702
H     -0.790956   -1.488055    1.331552
H      2.649746    1.509309    0.267778
H      3.002592    0.354340   -1.070179
H      1.695363    1.543294   -1.271147
H      1.345780   -2.038831    1.209820
H      2.602776   -0.823065    1.625816
H      2.692903   -1.737336    0.074926
