19

C     -3.176587   -1.089117    0.303437
C     -2.364373    0.089408   -0.208860
O     -1.026341   -0.010484    0.267039
C     -0.044123    0.934229   -0.043260
O     -0.309819    1.920094   -0.784070
C      1.347288    0.744453    0.471279
C      2.151137   -0.146068   -0.479119
C      3.549263   -0.354015    0.023137
O      4.329268   -1.041637   -0.615523
H     -3.186057   -1.089158    1.414019
H     -4.220855   -1.014071   -0.066504
H     -2.733038   -2.041087   -0.057846
H     -2.368928    0.082777   -1.320524
H     -2.821873    1.035856    0.152732
H      1.843587    1.734799    0.572790
H      1.299083    0.274368    1.477699
H      2.197688    0.327197   -1.484292
H      1.653311   -1.135914   -0.574219
H      3.881371    0.100194    0.952083
