32

C     -1.848616    1.002678    0.982326
C     -3.318454    0.622752    0.701513
C     -3.415594   -0.743488   -0.021058
C     -2.183069   -0.977663   -0.909345
C     -0.873375   -0.838891   -0.072083
O     -1.060507   -0.155829    1.162599
O      0.154926   -0.203843   -0.837754
C      1.494588   -0.072678   -0.440180
C      2.366209    0.632157   -1.276537
C      3.710376    0.794645   -0.929914
C      4.209223    0.249832    0.266781
C      3.333663   -0.460494    1.105724
C      1.989243   -0.622083    0.757356
N      5.592549    0.414180    0.629056
O      6.374842    1.044013   -0.112837
O      6.076826   -0.120548    1.801004
O     -2.202912   -0.053185   -1.969455
O     -3.501750   -1.783087    0.921584
O     -3.922368    1.614398   -0.088662
H     -1.803117    1.610545    1.910598
H     -1.435413    1.640297    0.166311
H     -3.865217    0.548307    1.671134
H     -4.324585   -0.764313   -0.668675
H     -2.247644   -2.012754   -1.323101
H     -0.539403   -1.871630    0.169330
H      1.998403    1.058543   -2.201354
H      4.358929    1.346500   -1.598136
H      3.687724   -0.892986    2.032544
H      1.347143   -1.177732    1.426122
H     -1.666378   -0.446511   -2.706628
H     -4.435072   -1.788012    1.260630
H     -4.051170    2.406881    0.495760
