12

C     -1.428489   -0.042086    0.095629
C      0.062032    0.148638    0.009563
C      0.577163    1.382975    0.088987
C      0.980740   -1.030793   -0.164663
H     -1.706448   -1.113603    0.014888
H     -1.800706    0.343320    1.068452
H     -1.925972    0.511246   -0.728873
H      1.649766    1.543015    0.029183
H     -0.067713    2.247837    0.214739
H      1.560261   -0.919451   -1.105527
H      0.413826   -1.983728   -0.214176
H      1.685540   -1.087370    0.691797
