11

C      1.272054   -0.563888    0.178532
C      0.312829    0.566710    0.417050
O      0.633331    1.473144    1.170497
C     -1.039713    0.613672   -0.245394
O     -1.254471   -0.504557   -1.064801
H      1.494243   -0.644847   -0.906081
H      0.826513   -1.515633    0.535868
H      2.224640   -0.391312    0.723747
H     -1.834557    0.684769    0.531759
H     -1.096658    1.527113   -0.873824
H     -1.538213   -1.245170   -0.467354
