24

C     -3.412650    1.438690   -0.240694
C     -3.703832    0.141429    0.188585
C     -2.671429   -0.773515    0.413355
C     -1.335222   -0.393891    0.208907
C     -0.293118   -1.305885    0.432150
C      1.040019   -0.921279    0.226304
C      2.087028   -1.830067    0.448193
C      3.412645   -1.438689    0.240686
C      3.703827   -0.141432   -0.188592
C      2.671427    0.773512   -0.413365
C      1.335221    0.393890   -0.208910
C      0.293120    1.305888   -0.432139
C     -1.040020    0.921279   -0.226306
C     -2.087031    1.830065   -0.448204
H     -4.216415    2.142806   -0.413079
H     -4.732367   -0.155840    0.347583
H     -2.916767   -1.775092    0.746110
H     -0.519206   -2.313170    0.765461
H      1.880792   -2.840331    0.781219
H      4.216417   -2.142793    0.413083
H      4.732366    0.155829   -0.347573
H      2.916767    1.775094   -0.746102
H      0.519220    2.313167   -0.765459
H     -1.880791    2.840334   -0.781213
