22

C     -1.893190   -2.949132    0.248053
O     -1.742532   -1.550542    0.026976
C     -0.518536   -0.864661    0.077784
C     -0.518398    0.518399   -0.161438
C      0.695110    1.233383   -0.117117
C      1.901875    0.576484    0.163575
C      1.892498   -0.805892    0.401398
C      0.694339   -1.521012    0.359229
C      3.159053    1.346860    0.204358
O      4.258824    0.785249    0.453759
O     -1.743390    1.145800   -0.439554
C     -1.897275    2.536968   -0.701508
H     -1.556231   -3.212243    1.272960
H     -2.964322   -3.218724    0.146392
H     -1.310042   -3.519844   -0.505227
H      0.707607    2.299857   -0.299864
H      2.811407   -1.335571    0.620233
H      0.722192   -2.585558    0.547228
H      3.146872    2.413304    0.018198
H     -1.561545    3.130159    0.175200
H     -1.315334    2.822529   -1.603175
H     -2.968986    2.754189   -0.887460
