30

C      4.370128    0.771911   -0.510777
C      3.217431   -0.129144   -0.209239
O      3.400023   -1.375530   -0.156601
N      1.908428    0.425511   -0.018420
C      0.715217   -0.406485    0.175689
C     -0.002180   -0.596005   -1.186207
C     -1.522056   -0.749579   -1.002261
C     -2.070780    0.509856   -0.254408
O     -1.123280    1.151910    0.598649
C     -0.244910    0.226349    1.218628
O      0.473550    0.852149    2.252100
C     -3.386031    0.245760    0.499843
O     -3.927820    1.448863    0.974847
O     -1.792324   -1.931310   -0.285605
O      0.540979   -1.673731   -1.908879
H      4.282880    1.147005   -1.551588
H      4.366288    1.632986    0.189827
H      5.331183    0.226001   -0.400410
H      1.778936    1.449048   -0.188972
H      1.013875   -1.397678    0.584136
H      0.153636    0.320076   -1.799945
H     -1.990025   -0.804738   -2.014908
H     -2.314105    1.249927   -1.048784
H     -0.835282   -0.584740    1.702032
H      0.702418    1.769332    1.949391
H     -4.120378   -0.213628   -0.195703
H     -3.226250   -0.464916    1.342202
H     -3.443276    1.669396    1.812844
H     -2.670611   -2.270502   -0.600260
H      0.414332   -2.498094   -1.371049
