18

C     -2.494614   -0.584621   -0.236454
C     -2.429024    0.810188   -0.253435
C     -1.195108    1.456450   -0.142488
C     -0.013132    0.707001   -0.013186
C      1.307293    1.369583    0.106033
O      1.401697    2.626283    0.094203
C      2.527674    0.552994    0.240258
C      2.464909   -0.781720    0.256515
C      1.173140   -1.483220    0.140777
O      1.149199   -2.743148    0.159599
C     -0.079426   -0.702760    0.003978
C     -1.326654   -1.340921   -0.108428
H     -3.452655   -1.080890   -0.322691
H     -3.336371    1.391918   -0.352806
H     -1.165365    2.538723   -0.157769
H      3.489937    1.042372    0.327014
H      3.377109   -1.356973    0.356233
H     -1.398608   -2.421260   -0.097352
