18

C     -1.867934    0.765538   -0.291025
C     -0.728769   -0.182984    0.107923
C     -0.489402   -1.216049   -1.005599
C      0.548820    0.617293    0.461111
C      1.606466   -0.274737    1.063044
O      1.598756   -0.497969    2.302318
O      2.571536   -0.890819    0.268844
O      1.046753    1.273323   -0.677655
H     -2.798825    0.189127   -0.479639
H     -1.606306    1.331293   -1.210887
H     -2.072958    1.487139    0.528346
H     -1.060561   -0.732546    1.017485
H     -0.132539   -0.722789   -1.934759
H     -1.432091   -1.758384   -1.232476
H      0.259392   -1.969379   -0.684293
H      0.273856    1.380167    1.227769
H      2.597064   -0.759640   -0.735028
H      1.686742    1.961417   -0.356297
