24

C      4.124050   -0.134083   -1.216435
C      2.957946    0.129690   -0.318618
C      1.731606   -0.292344   -0.648818
C      0.523105   -0.058240    0.180467
C     -0.739669   -0.163810   -0.426947
C     -1.918758    0.040212    0.317198
C     -1.825694    0.341677    1.682174
C     -0.571499    0.433420    2.296950
C      0.594703    0.231317    1.556396
O     -2.988208    0.545535    2.423878
O     -3.194510   -0.048530   -0.261993
C     -3.439378   -0.346671   -1.632665
H      4.270219   -1.228470   -1.335823
H      3.948964    0.326476   -2.211762
H      5.044076    0.304215   -0.776060
H      3.134742    0.692201    0.587569
H      1.601816   -0.802008   -1.597545
H     -0.797275   -0.397062   -1.482102
H     -0.499502    0.655261    3.354232
H      1.542305    0.280872    2.073846
H     -2.955110    0.763964    3.412881
H     -4.533916   -0.351977   -1.812362
H     -2.976758    0.427597   -2.280519
H     -3.033253   -1.349239   -1.883943
