11

C      1.128273    0.056119   -0.431725
C     -0.056950    0.090329    0.538470
C     -1.328312    0.476868   -0.169412
O     -1.436634    1.577515   -0.686579
O     -0.206668   -1.151672    1.178963
H      1.297885    1.063762   -0.867905
H      2.047982   -0.250519    0.110141
H      0.939562   -0.666379   -1.254717
H      0.151543    0.854007    1.318407
H     -2.163946   -0.214717   -0.212811
H     -0.372737   -1.835313    0.477168
