50

C      1.304987   -0.467273    0.146391
C      2.698765    0.168521    0.013971
C      3.491035   -0.386830   -1.182289
C      4.935429    0.144253   -1.246115
C      5.054628    1.572156   -1.808816
C      4.739995    2.626441   -0.786587
O      5.436801    2.715417    0.259347
O      3.686498    3.516063   -0.982126
C      1.353908   -1.876121    0.767893
C     -0.049086   -2.479395    0.948487
C     -0.764807   -1.943954    2.200357
C     -2.215028   -2.356258    2.221226
O     -2.511646   -3.533170    2.074659
C     -3.307707   -1.343513    2.458426
C     -4.048169   -0.982125    1.163296
C     -3.193717   -0.105584    0.234865
C     -3.980217    0.304950   -1.018490
C     -3.095283    0.985857   -2.077472
C     -2.517278    2.334871   -1.630691
O     -3.544476    3.244754   -1.337333
H      0.810697   -0.506086   -0.849370
H      0.693360    0.197343    0.791699
H      2.550614    1.257423   -0.128716
H      3.271028    0.025102    0.956641
H      2.957400   -0.156688   -2.130344
H      3.551003   -1.491670   -1.097005
H      5.424423    0.068170   -0.250071
H      5.504275   -0.526128   -1.927292
H      6.100707    1.732923   -2.148247
H      4.403322    1.688682   -2.702193
H      3.100867    3.467074   -1.807259
H      1.926075   -2.549677    0.095990
H      1.881900   -1.848200    1.746807
H      0.054392   -3.581982    1.052183
H     -0.654935   -2.295111    0.035175
H     -0.694968   -0.838022    2.242617
H     -0.265622   -2.348318    3.106884
H     -2.896072   -0.422518    2.925828
H     -4.034719   -1.771806    3.182260
H     -4.357822   -1.911329    0.635312
H     -4.970693   -0.423134    1.434256
H     -2.287674   -0.665220   -0.071931
H     -2.876203    0.804201    0.787964
H     -4.821299    0.974586   -0.734689
H     -4.421645   -0.604793   -1.482328
H     -2.258786    0.306593   -2.353627
H     -3.705500    1.148723   -2.993367
H     -1.912222    2.750578   -2.464322
H     -1.825782    2.206281   -0.766742
H     -3.720754    3.173946   -0.362530
