23

C      4.105191   -1.417047   -0.079593
C      3.155736   -0.493256    0.062680
C      1.715765   -0.821285   -0.015154
O      1.356134   -2.012071   -0.222867
C      0.680753    0.222177    0.146104
C      0.876287    1.585922    0.380663
C     -0.386221    2.175291    0.461312
C     -1.272845    1.139298    0.271774
N     -0.644248    0.002269    0.088386
C     -1.524518   -1.122259   -0.116106
C     -2.937949   -0.487496   -0.030086
C     -2.741612    1.031245    0.230818
H      5.147672   -1.133168   -0.015365
H      3.863206   -2.456792   -0.259872
H      3.465364    0.527258    0.240732
H      1.818234    2.105998    0.483450
H     -0.617475    3.217578    0.634718
H     -1.346993   -1.570317   -1.117375
H     -1.374757   -1.876531    0.686052
H     -3.516136   -0.948042    0.800273
H     -3.488682   -0.645274   -0.982818
H     -3.180355    1.334882    1.205107
H     -3.152551    1.641619   -0.601350
