18

C      2.257354   -1.336123    0.126030
N      2.602949   -0.367273   -0.751062
C      1.621240    0.544723   -0.620741
C      0.710484    0.128263    0.326366
N      1.113807   -1.066077    0.787296
C     -0.563129    0.811419    0.735282
C     -1.688423    0.562279   -0.274731
C     -2.105306   -0.876653   -0.290094
O     -1.645784   -1.660742   -1.161616
O     -2.968045   -1.360784    0.684983
O      1.566268    1.722110   -1.361384
H      2.835408   -2.238436    0.275431
H      0.640002   -1.666637    1.498052
H     -0.380822    1.904139    0.816211
H     -0.872764    0.454829    1.741889
H     -1.366841    0.876920   -1.291751
H     -2.566331    1.183040    0.005003
H      0.809933    2.385003   -1.245166
