42

C     -2.976453   -3.413414   -1.039500
C     -1.776703   -2.919432   -1.788005
O     -1.385229   -3.560695   -2.799964
C     -1.039214   -1.703167   -1.362592
C     -1.711966   -0.494799   -1.066202
C     -0.975304    0.629865   -0.673323
C      0.414068    0.566252   -0.521131
C      1.171836    1.825891   -0.171241
C      2.531965    1.562940    0.434503
C      3.221322    0.351212    0.197550
C      4.501906    0.158725    0.780696
C      5.103362    1.202711    1.491318
C      4.435614    2.415229    1.681324
C      3.154222    2.589431    1.160400
O      5.035025    3.452200    2.392950
O      5.193281   -1.053104    0.712290
C      2.564256   -0.664357   -0.659834
O      3.249509   -1.500263   -1.307786
C      1.093382   -0.628296   -0.819368
C      0.364167   -1.761231   -1.237019
O      1.027770   -2.958206   -1.498236
C     -3.167935   -0.350247   -1.280898
C     -4.052868   -0.084130   -0.302101
C     -3.659758    0.067802    1.145151
C     -3.492680    1.510860    1.504932
O     -2.432626    1.906952    2.057193
O     -4.521362    2.414351    1.267307
O     -5.405254    0.048790   -0.619929
H     -3.901730   -3.112416   -1.573194
H     -2.946209   -4.521165   -0.970918
H     -2.992383   -3.001110   -0.008422
H     -1.483985    1.573089   -0.514666
H      1.305988    2.426371   -1.096065
H      0.566794    2.426047    0.544250
H      6.087621    1.059122    1.919788
H      2.645263    3.533695    1.313144
H      5.964240    3.357422    2.786012
H      4.772495   -1.924102    0.421416
H     -3.536357   -0.524297   -2.284467
H     -2.734454   -0.502616    1.377798
H     -4.464559   -0.359133    1.780010
H     -5.747056   -0.042780   -1.569911
