47

C     -5.755202    0.795573   -0.774786
C     -5.391151   -0.360312    0.152168
C     -4.203741   -0.015956    1.012887
O     -4.271143    0.935105    1.777128
C     -2.937387   -0.829092    0.949100
C     -1.999436   -0.302848   -0.099579
O     -2.427006   -0.050932   -1.258034
C     -0.549034   -0.219402    0.161759
C      0.288820   -1.224089   -0.355357
C      1.684715   -1.170510   -0.150852
C      2.238401   -0.085373    0.554597
C      1.398490    0.916509    1.065052
C      0.008710    0.858382    0.886732
C     -0.841142    1.988245    1.422077
C     -1.263024    2.901958    0.315636
O     -0.411970    3.653459   -0.234897
O     -2.595490    2.903483   -0.106559
C     -3.059711    3.719316   -1.174762
C      3.704019   -0.003896    0.751560
O      4.191040    0.896680    1.489677
C      4.601035   -0.964229    0.066983
C      4.056756   -2.027195   -0.692185
C      2.584431   -2.245595   -0.646895
O      2.103728   -3.375126   -0.930386
C      4.937645   -2.874536   -1.419527
C      6.320887   -2.719204   -1.282834
C      6.847043   -1.700825   -0.493209
C      5.995698   -0.816056    0.163383
O      4.489946   -3.851965   -2.311523
O     -0.275355   -2.270859   -1.081935
H     -4.904424    1.036647   -1.445612
H     -6.023962    1.697563   -0.184684
H     -6.627541    0.510294   -1.399388
H     -6.258496   -0.593547    0.805623
H     -5.175359   -1.258626   -0.464500
H     -3.178582   -1.886718    0.710622
H     -2.444292   -0.823961    1.945626
H      1.828605    1.755691    1.599122
H     -0.284316    2.580017    2.180570
H     -1.731386    1.583946    1.942430
H     -2.869124    4.790208   -0.946794
H     -2.544428    3.437612   -2.117810
H     -4.151787    3.568279   -1.301144
H      6.993513   -3.376457   -1.819487
H      7.919643   -1.582186   -0.408786
H      6.430142   -0.014484    0.747248
H      3.551220   -3.884991   -2.683311
