42

C     -3.241638   -0.555945    1.174922
C     -4.745323   -0.295154    1.351993
C     -5.164066    0.993118    0.713056
O     -5.771966    0.983825   -0.390504
O     -4.854530    2.202897    1.326244
C     -2.842264   -0.834741   -0.287783
C     -1.341330   -0.964458   -0.393608
O     -0.777305   -2.035922   -0.038556
N     -0.553545    0.149283   -0.840359
C      0.911289    0.097701   -0.884834
C      1.461250    1.277611   -1.710243
C      2.972398    1.164909   -1.953322
C      3.448971    2.298539   -2.804750
O      3.483091    2.176475   -4.058514
O      3.809260    3.505097   -2.213219
C      1.460062    0.125184    0.519053
O      1.024675    0.976868    1.342202
N      2.492915   -0.789779    0.908708
C      3.038343   -0.787166    2.264581
C      4.101834   -1.829647    2.407060
O      5.306126   -1.538498    2.177203
O      3.753408   -3.132929    2.746945
N     -3.512657   -2.038492   -0.788583
H     -2.958984   -1.428263    1.804594
H     -2.673960    0.322584    1.556006
H     -5.337185   -1.139932    0.937702
H     -4.971588   -0.236273    2.438009
H     -5.117936    3.083373    0.900389
H     -3.164233    0.024504   -0.915353
H     -1.044751    1.031480   -1.111875
H      1.211860   -0.846806   -1.390774
H      0.943509    1.291414   -2.695137
H      1.235150    2.236992   -1.193093
H      3.518787    1.191675   -0.986396
H      3.204704    0.201120   -2.456885
H      4.113206    4.289295   -2.777535
H      2.862297   -1.464399    0.199511
H      2.224061   -0.995639    2.991529
H      3.466396    0.213175    2.491590
H      4.459761   -3.854029    2.832075
H     -3.209666   -2.870605   -0.231141
H     -3.220426   -2.198441   -1.780548
