34

C     -2.678846   -0.423993   -1.858533
C     -3.324826    0.775517   -1.152082
C     -2.277398    1.789994   -0.627402
C     -1.865813    1.638734    0.853776
C     -1.158082    0.322869    1.214931
C      0.186075    0.147610    0.491655
C      0.896531   -1.131688    0.965099
C      2.243724   -1.407205    0.262463
C      3.304638   -0.322561    0.549000
C      4.646648   -0.740248    0.033392
O      5.413117   -1.432566    0.755309
O      5.029520   -0.398665   -1.259871
O      2.061283   -1.613147   -1.118148
O     -4.165714    0.338000   -0.115190
H     -3.468516   -1.053406   -2.320831
H     -1.999921   -0.077309   -2.666402
H     -2.106910   -1.056722   -1.153371
H     -3.937681    1.307331   -1.917983
H     -2.722209    2.804880   -0.724816
H     -1.377676    1.803309   -1.278469
H     -2.766818    1.746331    1.495751
H     -1.193225    2.484507    1.116424
H     -0.969983    0.334517    2.311032
H     -1.826494   -0.539631    1.018131
H      0.011065    0.084821   -0.600820
H      0.822980    1.032443    0.702456
H      0.227163   -2.001831    0.785517
H      1.070697   -1.069403    2.061997
H      2.624158   -2.362159    0.688525
H      3.023097    0.638910    0.069919
H      3.376412   -0.147905    1.644782
H      5.927578   -0.687360   -1.629026
H      1.946059   -0.727515   -1.550219
H     -4.970635   -0.056459   -0.542426
