45

C      5.699726    1.730392    0.636924
C      5.084491    0.645060    1.520205
C      3.877798   -0.039822    0.861456
C      4.285861   -0.969053   -0.294591
C      3.082369   -1.717611   -0.883832
C      2.220728   -0.810179   -1.720491
O      2.600096   -0.502103   -2.882553
C      0.960219   -0.243916   -1.193724
C      0.765849    1.153860   -1.134068
C     -0.442539    1.667446   -0.659796
C     -1.473040    0.817031   -0.240566
C     -2.720700    1.417340    0.364744
C     -3.919119    0.496201    0.318381
C     -3.767176   -0.906721    0.225018
C     -4.926063   -1.727290    0.195532
C     -6.188734   -1.148942    0.361980
C     -6.329517    0.231083    0.501689
C     -5.198441    1.050660    0.473077
O     -7.600239    0.779402    0.661903
O     -4.875979   -3.104819   -0.030549
C     -2.390289   -1.453399    0.166568
O     -2.144173   -2.622704    0.567028
C     -1.286125   -0.576880   -0.282245
C     -0.075388   -1.104900   -0.777760
O      0.086412   -2.483630   -0.894670
O      1.759360    2.059824   -1.514159
H      4.925972    2.464581    0.326580
H      6.169847    1.285737   -0.264210
H      6.486765    2.267294    1.207188
H      4.745047    1.119230    2.466607
H      5.859180   -0.108292    1.781226
H      3.357635   -0.642264    1.637990
H      3.164457    0.732009    0.505169
H      5.009500   -1.721225    0.088735
H      4.790832   -0.392796   -1.099076
H      2.496001   -2.185086   -0.064449
H      3.455065   -2.541620   -1.529952
H     -0.570683    2.741746   -0.599864
H     -2.511120    1.672221    1.425411
H     -2.967766    2.359546   -0.172975
H     -7.071018   -1.777154    0.357462
H     -5.314857    2.122290    0.582304
H     -7.737597    1.778227    0.763917
H     -4.058870   -3.587960   -0.375823
H      2.686224    1.777184   -1.805220
