50

C     -5.390424   -1.131435   -1.140641
C     -5.106872   -0.503117    0.228205
C     -4.963622   -1.580287    1.345605
C     -4.068253   -1.038915    2.462930
C     -2.689836   -0.607251    1.915238
C     -2.768772   -0.250390    0.415972
O     -4.001727    0.393243    0.139082
O     -1.703323    0.627651    0.106212
C     -1.476822    0.684211   -1.291450
C     -0.419397   -0.342651   -1.729843
C      0.863911   -0.318987   -0.881386
C      1.668963    0.979230   -1.061186
C      2.955591    0.999231   -0.219808
C      4.040609    0.053158   -0.767032
C      5.398761    0.213826   -0.033694
C      6.360929    1.190207   -0.746474
C      5.885138    2.608151   -0.691570
O      5.996425    3.270722    0.374638
O      5.294194    3.185546   -1.811256
O      6.023075   -1.039718    0.095863
O     -1.751049   -1.637405    2.090914
O     -6.220957   -1.906871    1.878515
H     -4.561661   -1.801739   -1.450245
H     -6.332078   -1.718953   -1.106603
H     -5.503603   -0.332498   -1.903739
H     -5.991281    0.121984    0.481984
H     -4.478262   -2.500744    0.940964
H     -4.567437   -0.158289    2.925851
H     -3.950082   -1.807605    3.258111
H     -2.360091    0.297392    2.480041
H     -2.675801   -1.196609   -0.171675
H     -1.118360    1.703694   -1.542876
H     -2.406640    0.541352   -1.891257
H     -0.860328   -1.360433   -1.667926
H     -0.162804   -0.166303   -2.797162
H      0.613191   -0.466530    0.191583
H      1.484457   -1.182463   -1.199728
H      1.046890    1.839680   -0.735869
H      1.917615    1.128651   -2.134772
H      2.719913    0.731277    0.833641
H      3.336239    2.040425   -0.215980
H      3.687639   -0.990946   -0.628523
H      4.172819    0.212326   -1.859672
H      5.219319    0.587488    0.999051
H      7.357832    1.137925   -0.257102
H      6.499242    0.885863   -1.806794
H      4.953253    4.139066   -1.784710
H      6.185628   -1.389253   -0.820008
H     -1.492341   -1.630336    3.049372
H     -6.659811   -2.512572    1.225995
