46

C     -5.427650    0.791579    1.834345
C     -5.711089    0.651398    0.332076
C     -4.441796    0.822365   -0.529907
C     -3.453326   -0.342748   -0.368505
C     -2.258550   -0.184577   -1.320573
C     -1.312682   -1.398841   -1.300564
C     -0.642605   -1.681232    0.059221
C      0.156421   -0.504080    0.653005
C      1.275992    0.039444   -0.252085
C      2.358452   -1.010464   -0.558059
C      3.588181   -0.390741   -1.257179
C      4.813911   -0.228876   -0.331702
C      4.558149    0.791963    0.789700
C      5.774774    0.969648    1.644895
O      6.013588    0.158676    2.579411
O      6.662140    2.008425    1.381616
O      5.912176    0.197345   -1.098338
O     -6.688540    1.582264   -0.059940
H     -4.805518   -0.052316    2.197466
H     -4.906220    1.749023    2.047788
H     -6.384445    0.775057    2.398132
H     -6.129362   -0.363189    0.153643
H     -3.936638    1.779525   -0.272506
H     -4.752874    0.880479   -1.596346
H     -3.972747   -1.301986   -0.584630
H     -3.083536   -0.362529    0.676961
H     -1.699698    0.744150   -1.079061
H     -2.639047   -0.073356   -2.359566
H     -0.529137   -1.255331   -2.074399
H     -1.885752   -2.302678   -1.601910
H     -1.417665   -1.988386    0.792862
H      0.028692   -2.558852   -0.053592
H     -0.538089    0.325192    0.904452
H      0.605074   -0.835507    1.614795
H      1.734973    0.906737    0.266885
H      0.849634    0.427555   -1.201127
H      1.922057   -1.775123   -1.236339
H      2.658710   -1.536431    0.374562
H      3.882657   -1.066300   -2.090553
H      3.335123    0.586938   -1.724497
H      5.046834   -1.214745    0.137322
H      4.272558    1.773098    0.351817
H      3.726537    0.446260    1.439333
H      7.497006    2.132751    1.941671
H      6.261203   -0.602041   -1.572961
H     -6.317877    2.490458    0.097499
