40

C      3.569741    1.686424    1.151329
C      3.071970    0.434250    0.430255
C      4.237355   -0.547059    0.147371
C      3.723458   -2.000782    0.067734
C      2.277786   -2.042224   -0.434159
C      1.367241   -1.177482    0.486288
O      2.089285   -0.197332    1.229586
O      0.365654   -0.558294   -0.302389
C     -0.693517   -0.102551    0.514132
C     -1.702071    0.647091   -0.355168
C     -2.890710    1.147110    0.479364
C     -3.849989    2.042674   -0.325949
C     -4.596591    1.315182   -1.455576
C     -5.465963    0.212495   -0.934959
O     -6.577934    0.480957   -0.406455
O     -5.029388   -1.106700   -1.005698
O      1.831012   -3.372572   -0.463175
O      4.857933   -0.186266   -1.060325
H      2.724893    2.391222    1.303984
H      4.349208    2.195144    0.544834
H      3.994168    1.421891    2.143501
H      2.622770    0.775660   -0.533321
H      4.980211   -0.494997    0.979104
H      3.764028   -2.458249    1.081589
H      4.374568   -2.608903   -0.597871
H      2.270685   -1.628938   -1.470998
H      0.909620   -1.874499    1.227964
H     -0.318663    0.591228    1.301322
H     -1.209107   -0.965935    0.993543
H     -2.061293   -0.041581   -1.149102
H     -1.192563    1.510271   -0.836934
H     -2.503678    1.747726    1.331610
H     -3.442324    0.282949    0.908333
H     -4.596483    2.480255    0.372736
H     -3.278499    2.890900   -0.761859
H     -3.880429    0.912207   -2.201460
H     -5.236598    2.050547   -1.989347
H     -5.599055   -1.862409   -0.644565
H      0.988612   -3.376668   -0.988754
H      5.754658   -0.612742   -1.062227
