40

C      4.835317    1.342230    0.185088
C      4.925228   -0.017868   -0.521011
C      4.291874   -1.163557    0.302368
C      2.790114   -0.995028    0.598758
C      1.928025   -0.962481   -0.675637
C      0.427295   -1.115920   -0.380533
C     -0.164229    0.119064    0.321730
C     -1.675626   -0.013285    0.572631
C     -2.508801    0.247790   -0.696934
C     -4.028862    0.081040   -0.480715
C     -4.602640    1.149053    0.465545
C     -6.099779    1.121524    0.454549
O     -6.725679    0.421741    1.295161
O     -6.798452    1.837346   -0.512513
O     -4.317369   -1.199319    0.021404
O      6.267338   -0.321549   -0.808019
H      5.424165    2.096445   -0.378793
H      5.238577    1.275251    1.218035
H      3.783471    1.694229    0.223472
H      4.397499    0.063961   -1.494070
H      4.443458   -2.121253   -0.242242
H      4.829092   -1.254502    1.271879
H      2.474316   -1.856397    1.227097
H      2.627776   -0.076523    1.199172
H      2.233705   -1.799721   -1.340657
H      2.094974   -0.012161   -1.226559
H     -0.088709   -1.272822   -1.350391
H      0.256953   -2.023031    0.239756
H      0.042143    1.035180   -0.274098
H      0.329556    0.241827    1.308914
H     -1.900588   -1.021025    0.984552
H     -1.952096    0.735631    1.344434
H     -2.202361   -0.459559   -1.495352
H     -2.302459    1.274582   -1.071095
H     -4.520498    0.208444   -1.474695
H     -4.245881    0.979345    1.504012
H     -4.265398    2.158773    0.145829
H     -7.810776    1.817005   -0.543419
H     -4.185585   -1.837785   -0.727515
H      6.754910   -0.376674    0.055780
