24

C      3.098878   -0.922572   -0.347452
C      1.916368   -0.087021    0.076729
C      0.577540   -0.488560   -0.182210
C      0.293291   -1.712267   -0.821749
C     -1.021922   -2.107386   -1.052140
C     -2.078747   -1.285288   -0.672737
C     -1.842825   -0.045986   -0.058616
C     -0.504870    0.349508    0.222502
C     -0.216751    1.533773    0.932262
C      1.098888    1.910648    1.187466
C      2.155707    1.115762    0.757185
C     -3.016362    0.809455    0.233027
O     -4.076473    0.293056    0.678986
O     -2.983596    2.173357   -0.043910
O     -1.280613   -3.324550   -1.670957
H      3.067034   -1.906967    0.165081
H      3.079435   -1.072938   -1.447373
H      4.063488   -0.435205   -0.090244
H      1.082461   -2.380764   -1.138527
H     -3.091728   -1.605736   -0.886984
H     -0.997872    2.167734    1.324277
H      1.301045    2.824837    1.731033
H      3.167820    1.437335    0.970366
H     -3.790195    2.759775    0.133985
