12

C     -0.754981    1.198331    0.441438
O     -0.387080    2.343975    0.648777
C      0.134334    0.238551   -0.303614
C      1.371837   -0.043221    0.502707
O      2.508455    0.226196    0.032453
O      1.270039   -0.608619    1.768481
N     -0.578363   -1.010050   -0.594689
H     -1.732748    0.883815    0.793428
H      0.424532    0.714886   -1.267768
H     -1.417179   -0.808077   -1.186572
H     -0.887005   -1.476621    0.290013
H      0.048160   -1.659166   -1.124654
