50

C     -1.589128   -4.494249    0.441914
C     -2.025172   -3.108779    0.812973
C     -1.329032   -1.984485    0.539085
C     -1.871039   -0.651142    1.018535
C     -2.329747    0.252362   -0.164020
C     -2.599362    1.746324    0.264189
C     -1.446398    2.342644    1.070237
O     -1.706847    3.091020    2.050326
O     -0.102820    2.062770    0.799631
C      0.536205    2.313105   -0.447245
C      1.979245    1.941717   -0.320273
C      2.886071    2.598025    0.421660
C      4.054876    1.677246    0.709822
N      3.453972    0.367532    0.459113
C      2.598959    0.639182   -0.675968
C      1.926752   -0.682489   -0.976659
C      3.100884   -1.662655   -0.681197
C      4.186138   -0.816632    0.039108
O      0.818086   -0.894784   -0.102001
C     -0.056911   -1.980350   -0.231721
O      0.215005   -2.911133   -1.038381
C     -2.816015    2.643773   -0.970697
O     -3.784160    1.812567    1.028167
C     -3.561724   -0.375868   -0.850476
H     -1.617231   -4.623217   -0.660040
H     -0.567042   -4.693112    0.827949
H     -2.282803   -5.234896    0.892282
H     -2.951390   -3.033931    1.371044
H     -2.715389   -0.794574    1.727602
H     -1.066507   -0.164764    1.605038
H     -1.522263    0.250891   -0.922100
H      0.447319    3.389034   -0.709795
H      0.087793    1.708314   -1.256174
H      2.681244    3.521581    0.953742
H      4.897307    1.879270    0.010628
H      4.388680    1.771670    1.765944
H      2.872730    0.110557    1.299548
H      3.217846    0.867540   -1.585999
H      1.598391   -0.728909   -2.039135
H      2.768707   -2.497759   -0.027356
H      3.507719   -2.080848   -1.627163
H      4.603727   -1.357471    0.916711
H      5.010553   -0.548724   -0.660536
H     -2.824805    3.716107   -0.676867
H     -3.797354    2.434658   -1.444826
H     -2.024456    2.495601   -1.732417
H     -3.637980    1.317581    1.875848
H     -4.429545   -0.406824   -0.158266
H     -3.340229   -1.412372   -1.180084
H     -3.842863    0.188895   -1.761705
