49

C      1.606683   -2.099125    0.419975
C      2.407771   -0.995438   -0.295466
C      2.665924    0.231762    0.594917
C      3.466521    1.335453   -0.120970
C      4.895057    0.943219   -0.541012
C      5.781812    0.542019    0.646853
C      7.237135    0.355304    0.209460
O      8.020328   -0.058826    1.295571
C      0.181609   -1.703848    0.848875
C     -0.707797   -1.286750   -0.331751
C     -2.161783   -1.093508    0.116203
C     -3.043405   -0.642782   -1.058346
C     -4.537952   -0.588289   -0.696174
C     -4.895400    0.568047    0.269001
C     -6.384424    0.559430    0.671022
C     -7.309771    0.791499   -0.486255
O     -7.786428   -0.187239   -1.121024
O     -7.625298    2.090363   -0.872746
O     -4.524557    1.820439   -0.254861
H      2.169884   -2.424094    1.321959
H      1.542949   -2.980395   -0.255137
H      1.895016   -0.689690   -1.231592
H      3.380261   -1.443750   -0.587053
H      1.693308    0.680014    0.886295
H      3.178706   -0.073981    1.530986
H      2.906616    1.654960   -1.026962
H      3.523883    2.219695    0.550834
H      4.867860    0.124238   -1.290087
H      5.348301    1.825050   -1.044922
H      5.420410   -0.415178    1.079525
H      5.735312    1.329080    1.430986
H      7.639541    1.303156   -0.216016
H      7.289469   -0.425267   -0.579425
H      8.173140    0.744750    1.858406
H      0.216175   -0.892031    1.605468
H     -0.274122   -2.587902    1.346558
H     -0.666181   -2.069183   -1.121171
H     -0.336598   -0.329384   -0.756362
H     -2.187677   -0.327608    0.920118
H     -2.550519   -2.052324    0.524379
H     -2.703848    0.349169   -1.427843
H     -2.923160   -1.367633   -1.893350
H     -5.111799   -0.469265   -1.640470
H     -4.843744   -1.558550   -0.246798
H     -4.325460    0.419597    1.209785
H     -6.632853   -0.411203    1.153625
H     -6.557865    1.353841    1.428691
H     -8.240674    2.263409   -1.658534
H     -4.912360    1.897272   -1.165165
