44

C     -6.458733    1.457612    1.983277
C     -6.044177    0.085969    1.572133
O     -6.912604   -0.821258    1.457413
O     -4.703026   -0.167030    1.272686
C     -4.237836   -1.445027    0.848467
C     -2.728385   -1.396885    0.597722
C     -2.356074   -0.437314   -0.553339
C     -2.754557   -1.006420   -1.955391
O     -1.532299   -1.152865   -2.679261
C     -0.469960   -0.725135   -1.914732
C     -0.871033   -0.293348   -0.684487
C      0.044087    0.253380    0.221171
C      1.416536    0.302625   -0.137819
C      1.823870   -0.187003   -1.407348
C      0.862904   -0.696203   -2.306332
C      3.252600   -0.145097   -1.787356
O      3.600649   -0.465905   -2.957335
C      4.276786    0.251368   -0.791669
C      3.887025    0.681876    0.499598
C      2.436134    0.884832    0.772134
O      2.067112    1.629197    1.719341
C      4.894398    0.957132    1.465055
C      6.242169    0.914417    1.095225
C      6.618244    0.536796   -0.191761
C      5.640629    0.191069   -1.126992
O      7.969804    0.494052   -0.527571
O      4.610036    1.239696    2.803211
O     -0.402790    0.736997    1.446697
O     -3.619426   -0.131831   -2.631370
H     -5.591504    2.003889    2.409896
H     -7.259106    1.400073    2.750860
H     -6.837546    2.010007    1.098464
H     -4.445771   -2.193738    1.643473
H     -4.775178   -1.755098   -0.073181
H     -2.236609   -1.070597    1.538556
H     -2.361434   -2.422203    0.370750
H     -2.799689    0.568540   -0.381751
H     -3.240679   -2.002418   -1.880904
H      1.140148   -1.057705   -3.288410
H      7.006317    1.147846    1.826509
H      5.949889   -0.123860   -2.115998
H      8.277976    0.219413   -1.453061
H      3.722912    1.039410    3.242911
H     -3.101808    0.690742   -2.834956
