50

C      6.631890    0.881360    0.171490
C      7.845142    0.306504    0.562392
C      7.906209   -1.051438    0.898199
C      6.747399   -1.830233    0.845712
C      5.532117   -1.259340    0.456409
C      5.460633    0.100682    0.103616
C      4.155303    0.683596   -0.297580
C      4.071357    1.798106   -1.148717
C      2.817856    2.304727   -1.494448
O      2.751214    3.304540   -2.259579
C      1.656079    1.689202   -0.988384
C      0.349909    2.139070   -1.283413
C     -0.758393    1.472235   -0.749461
C     -0.589416    0.347343    0.079094
C      0.704333   -0.089199    0.378738
C      1.821481    0.565906   -0.146532
O      3.037093    0.120216    0.154854
O     -1.666537   -0.359361    0.640126
C     -3.043251   -0.232434    0.276417
C     -3.298864   -0.943634   -1.079048
C     -4.724801   -1.548733   -1.152961
C     -5.727338   -0.732205   -0.304224
C     -5.189883   -0.517426    1.147745
O     -3.816089   -0.857635    1.281850
C     -5.992767   -1.353385    2.155871
O     -5.511161   -1.151729    3.457448
O     -5.953952    0.520028   -0.901092
O     -4.686080   -2.874088   -0.684874
O     -3.061695   -0.077540   -2.160976
O      0.133003    3.244726   -2.099893
O      9.110129   -1.634013    1.287702
H      6.613052    1.939560   -0.050926
H      8.736032    0.919763    0.610820
H      6.788159   -2.880050    1.107175
H      4.649167   -1.885590    0.419897
H      4.959912    2.256458   -1.563367
H     -1.741064    1.853563   -0.981311
H      0.842137   -0.949896    1.021882
H     -3.306782    0.849209    0.227065
H     -2.572550   -1.781422   -1.174629
H     -5.058565   -1.554556   -2.217788
H     -6.696521   -1.285628   -0.277494
H     -5.327730    0.549853    1.439689
H     -7.074032   -1.088525    2.104906
H     -5.893079   -2.431490    1.906481
H     -5.845128   -0.263618    3.749857
H     -6.520317    0.362424   -1.701462
H     -5.516827   -3.317050   -1.000669
H     -3.714125    0.667165   -2.103291
H      9.967342   -1.095792    1.336685
