30

C     -5.532467   -0.454362    0.892733
O     -5.177687   -1.101649   -0.337300
C     -3.806663   -1.016407   -0.483982
C     -3.278392   -0.355466    0.575970
O     -4.290694    0.006459    1.443658
C     -1.911333   -0.123054    0.694837
C     -1.062458   -0.595433   -0.334033
C     -1.625729   -1.292083   -1.436653
C     -3.013947   -1.504438   -1.517076
C      0.404856   -0.386029   -0.254893
C      1.278484   -1.460415   -0.488072
O      2.594936   -1.298575   -0.416150
C      3.159554   -0.131908   -0.125525
C      2.359945    1.007321    0.119659
C      0.962729    0.871657    0.046220
O      0.215749    1.872824    0.228762
C      2.979954    2.234195    0.421665
C      4.374339    2.320047    0.480257
C      5.160327    1.189215    0.238169
C      4.554190   -0.034017   -0.064285
O      6.545403    1.281261    0.297897
H     -6.205406    0.405684    0.692765
H     -6.012011   -1.179749    1.582920
H     -1.520541    0.391083    1.563574
H     -0.992212   -1.657320   -2.235303
H     -3.451854   -2.029925   -2.355429
H      0.886919   -2.442109   -0.722118
H      2.392451    3.123784    0.612847
H      4.844854    3.266686    0.713900
H      5.166705   -0.907277   -0.251975
