31

C     -3.889573    0.358536    1.407610
C     -5.239046    0.325453    1.043171
C     -5.606652   -0.046157   -0.252245
C     -4.623940   -0.387844   -1.184506
C     -3.272803   -0.355611   -0.825413
C     -2.888378    0.025779    0.475455
C     -1.459654    0.061510    0.879856
O     -1.165132   -0.028311    2.104137
C     -0.348598    0.132172   -0.139937
C      0.868481    0.850393    0.388255
O      0.713726    1.939810    1.005604
C      2.240637    0.339083    0.143687
C      3.270306    0.552677    1.086163
C      4.564916    0.076652    0.829880
C      4.846523   -0.610292   -0.353397
C      3.830584   -0.822150   -1.291433
C      2.538784   -0.349914   -1.047204
O      6.138261   -1.076352   -0.587711
O      3.006025    1.222668    2.281081
O     -6.948210   -0.078432   -0.612307
H     -3.628683    0.654265    2.416266
H     -5.998786    0.589044    1.768039
H     -4.907181   -0.683826   -2.186672
H     -2.537000   -0.648300   -1.562545
H     -0.094016   -0.909116   -0.429121
H     -0.690194    0.678914   -1.043918
H      5.353981    0.237667    1.553819
H      4.042142   -1.347307   -2.214230
H      1.779685   -0.505644   -1.803052
H      6.374668   -1.577621   -1.436095
H      3.729127    1.382256    2.972861
