42

C     -1.557089    1.155658   -1.011521
C     -2.288567    2.304920   -0.700289
C     -2.848108    2.458761    0.575587
C     -2.670248    1.458767    1.537119
C     -1.936297    0.309944    1.228847
C     -1.368156    0.148037   -0.049317
C     -0.583936   -1.103547   -0.399930
C     -1.510102   -2.345858   -0.482920
C     -2.545030   -2.177640   -1.573712
O     -2.202521   -2.227630   -2.784767
O     -3.876286   -1.923772   -1.255006
N     -0.717666   -3.557551   -0.710259
N      0.522928   -1.285592    0.559500
C      0.520970   -2.012982    1.698208
N      1.683769   -1.934531    2.375105
C      2.443830   -1.103837    1.638852
C      1.728549   -0.677561    0.532948
C      2.222340    0.197043   -0.604342
C      3.350316    1.190024   -0.249577
C      2.935394    2.100269    0.876846
O      3.426859    1.968717    2.031916
O      1.965355    3.068039    0.646650
N      4.596788    0.487136    0.063070
O     -3.583699    3.597267    0.894627
H     -1.142421    1.051534   -2.008129
H     -2.426515    3.071241   -1.454045
H     -3.105984    1.569523    2.519996
H     -1.818267   -0.453741    1.984039
H     -0.135530   -0.983209   -1.411878
H     -2.044019   -2.463801    0.484351
H     -4.182729   -1.843748   -0.292952
H     -1.359601   -4.385779   -0.713703
H     -0.253712   -3.509112   -1.647916
H     -0.321289   -2.594915    2.051381
H      3.457014   -0.840505    1.902766
H      1.370678    0.792329   -0.994958
H      2.556410   -0.465389   -1.432273
H      3.525160    1.827858   -1.144767
H      1.668763    3.691656    1.390332
H      5.360900    1.197645    0.168525
H      4.862143   -0.101420   -0.761424
H     -3.720396    4.345754    0.222974
