32

C     -1.051963    2.466599    0.993766
O     -2.289812    1.765361    0.981240
C     -2.485861    0.415779    0.630196
C     -1.459406   -0.420234    0.117680
C     -1.743318   -1.771755   -0.213379
C     -3.049901   -2.271857   -0.026852
C     -4.049586   -1.440347    0.473616
C     -3.779228   -0.111716    0.798563
O     -4.819270    0.675752    1.294397
O     -3.374864   -3.589450   -0.334695
C     -0.693387   -2.563356   -0.722223
O     -0.869909   -3.774081   -1.026726
C      0.569980   -2.003832   -0.894170
C      0.778089   -0.660220   -0.557059
O     -0.229652    0.056391   -0.064572
C      2.102970   -0.015725   -0.729499
C      2.491562    1.022155    0.136316
C      3.731019    1.650103   -0.019302
C      4.593133    1.254606   -1.043997
C      4.215920    0.232263   -1.917163
C      2.977686   -0.399714   -1.765572
H     -0.629928    2.526392   -0.031271
H     -0.343936    1.973552    1.691254
H     -1.229605    3.500423    1.353950
H     -5.050335   -1.831035    0.611646
H     -4.691383    1.647264    1.550451
H      1.379846   -2.620004   -1.264622
H      1.845243    1.336551    0.944279
H      4.023648    2.443210    0.656648
H      5.551731    1.742706   -1.163678
H      4.880908   -0.066873   -2.717108
H      2.699611   -1.168907   -2.473868
