42

C      4.102600   -2.849631   -0.017966
C      3.300174   -1.578958   -0.020573
C      1.894034   -1.554618   -0.275115
N      1.216888   -0.343680   -0.295982
C      1.903817    0.818170   -0.047037
N      1.291212    2.033160   -0.053130
C      1.982465    3.177079    0.200936
N      3.317590    3.132292    0.467937
C      4.008274    1.962600    0.490815
O      5.242953    1.969667    0.739970
C      3.340521    0.766166    0.236400
N      3.969590   -0.425738    0.232981
N      1.304030    4.430730    0.188760
C     -0.237591   -0.251964   -0.574304
C     -1.050086   -0.059575    0.733600
C     -2.418424    0.656655    0.524342
C     -3.501865   -0.182009   -0.216751
C     -4.816689    0.608018   -0.370471
O     -5.762638   -0.145860   -1.079735
O     -3.049281   -0.604557   -1.478403
O     -2.908768    1.096723    1.767621
O     -1.197053   -1.270126    1.432813
C      1.165746   -2.850495   -0.584161
H      5.180634   -2.630755    0.138397
H      3.764836   -3.510834    0.807433
H      3.999788   -3.369595   -0.993646
H      1.823848    5.315338    0.382316
H      0.280453    4.475570   -0.012847
H     -0.420740    0.604781   -1.259552
H     -0.608162   -1.128091   -1.140010
H     -0.459520    0.614814    1.390425
H     -2.225866    1.570320   -0.080298
H     -3.732850   -1.086584    0.385120
H     -4.626118    1.549608   -0.928599
H     -5.225668    0.884639    0.627839
H     -6.100731   -0.838574   -0.453933
H     -2.872554    0.208521   -2.020716
H     -3.115644    0.291231    2.310167
H     -1.662115   -1.910726    0.836393
H      0.256025   -2.940394    0.037339
H      1.757351   -3.759899   -0.369453
H      0.889537   -2.873419   -1.658923
