46

C      5.246679    1.926851   -1.521835
C      4.238786    1.194253   -0.674499
C      2.925012    1.374290   -0.935239
C      1.809934    0.681046   -0.193553
C      1.497705   -0.686857   -0.832517
C      0.508872   -1.574532   -0.011877
C      1.281933   -2.202340    1.180286
C      0.087927   -2.761376   -0.881065
C     -0.826975   -3.656981   -0.485895
C     -0.748034   -0.743462    0.396491
C     -1.676913   -0.408085   -0.546610
C     -2.938760    0.328464   -0.209560
C     -3.041514    0.987986    1.034573
C     -4.135098    1.827642    1.304153
C     -5.141581    2.002782    0.357233
C     -5.084303    1.305075   -0.850445
C     -4.022966    0.436148   -1.124764
O     -4.113938   -0.328772   -2.289404
O     -6.205888    2.858133    0.634281
C     -2.005124    0.768358    2.052826
O     -2.066694    1.347309    3.172109
C     -0.899731   -0.151072    1.766176
O     -0.077702   -0.389181    2.688732
O     -1.421247   -0.692556   -1.884814
C      4.716653    0.300175    0.446336
H      6.287644    1.706640   -1.206191
H      5.082830    3.022155   -1.437646
H      5.133990    1.623603   -2.584329
H      2.635421    2.044331   -1.741274
H      2.056283    0.593671    0.882441
H      0.906574    1.324253   -0.262399
H      1.085893   -0.493623   -1.846937
H      2.443288   -1.249915   -0.993935
H      2.029628   -2.940804    0.814768
H      0.590402   -2.738179    1.865415
H      1.859242   -1.454806    1.758438
H      0.543125   -2.899746   -1.858657
H     -1.318338   -3.569029    0.477989
H     -1.092808   -4.484160   -1.135816
H     -4.209926    2.350500    2.249828
H     -5.890424    1.406024   -1.566706
H     -3.619008   -1.199792   -2.422105
H     -6.956717    3.002645   -0.030777
H      4.341631   -0.733770    0.304312
H      5.824726    0.254671    0.485380
H      4.359513    0.692033    1.421547
