46

C     -5.826501   -1.437977    1.649346
C     -5.716517   -0.302059    0.632858
C     -4.358124   -0.357950   -0.089002
C     -4.255620    0.699387   -1.199142
C     -3.000701    0.530381   -2.072863
C     -1.681949    0.799766   -1.317410
C     -0.959396   -0.502282   -0.928544
C      0.231034   -0.261494    0.012820
C      1.396729    0.460514   -0.679110
C      2.611280    0.558786    0.251585
C      3.775154    1.287523   -0.436531
C      4.990165    1.443156    0.490341
C      5.611916    0.120800    0.844847
C      6.279866   -0.599930   -0.062910
C      6.919267   -1.896775    0.234892
O      7.736994   -2.371764   -0.595649
O      6.635547   -2.628712    1.388141
O     -5.857115    0.921947    1.308098
H     -6.810640   -1.389066    2.162015
H     -5.022810   -1.356699    2.412476
H     -5.745615   -2.421868    1.139646
H     -6.537921   -0.437104   -0.110902
H     -4.228551   -1.366992   -0.539238
H     -3.547857   -0.195335    0.654427
H     -5.145775    0.616942   -1.860648
H     -4.260539    1.718352   -0.754377
H     -2.997883   -0.477749   -2.543292
H     -3.079083    1.263326   -2.905734
H     -1.867938    1.421869   -0.414496
H     -1.014487    1.384975   -1.985827
H     -1.667897   -1.182306   -0.411657
H     -0.612039   -1.025462   -1.846419
H      0.585567   -1.251259    0.375730
H     -0.103066    0.321448    0.899124
H      1.683581   -0.095916   -1.598513
H      1.081814    1.486214   -0.967376
H      2.324236    1.111345    1.173342
H      2.933303   -0.465831    0.539675
H      4.071012    0.741701   -1.359080
H      3.438302    2.303025   -0.739539
H      5.751091    2.084878   -0.004921
H      4.677412    1.961722    1.422587
H      5.537390   -0.206010    1.872346
H      6.391301   -0.206417   -1.066823
H      5.923301   -2.356514    2.052169
H     -6.288238    1.555418    0.676913
