34

C     -0.865533   -0.413881    0.053526
C     -2.229129   -1.116867   -0.026838
C     -3.265111   -0.513636    0.935007
C     -3.733402    0.883049    0.500324
C     -4.859613    1.391540    1.404321
O     -5.286364    2.657822    0.981214
C      0.176617   -1.140561   -0.810166
C      1.516411   -0.390736   -0.880691
C      2.292787   -0.441929    0.444123
C      3.637193    0.213742    0.310111
C      4.631950   -0.363823   -0.372850
C      5.961295    0.253074   -0.504484
O      6.215297    1.368359    0.026473
O      6.949008   -0.407700   -1.227152
H     -0.964350    0.632855   -0.304438
H     -0.528637   -0.400170    1.111722
H     -2.615640   -1.076901   -1.068960
H     -2.096177   -2.188014    0.241663
H     -4.144046   -1.194670    0.961316
H     -2.843723   -0.468827    1.963322
H     -4.101028    0.845569   -0.548500
H     -2.885816    1.598672    0.553695
H     -5.722901    0.694390    1.350248
H     -4.516611    1.433941    2.463624
H     -4.600399    3.306436    1.288828
H     -0.218561   -1.232757   -1.845783
H      0.341692   -2.169106   -0.420468
H      1.342268    0.667510   -1.175769
H      2.128237   -0.864554   -1.679160
H      2.424415   -1.495114    0.776132
H      1.724018    0.098407    1.229427
H      3.795920    1.161780    0.810511
H      4.467379   -1.322803   -0.849652
H      7.872554   -0.005098   -1.333461
