46

C     -1.339393   -1.460358   -0.821724
C     -0.394671   -0.361374   -0.312225
C      0.937257   -0.386737   -1.071861
C      1.884196    0.707993   -0.558856
C      3.165986    0.837653   -1.401821
C      4.042438   -0.428720   -1.467856
C      4.543368   -0.974345   -0.108035
C      5.548908   -0.028095    0.584076
C      4.880230    1.030441    1.409148
O      5.089404    2.248941    1.165359
O      4.057689    0.667430    2.471384
O      5.190317   -2.201031   -0.334339
C     -2.631196   -1.562333    0.004933
C     -3.577536   -0.374323   -0.225835
C     -4.901052   -0.572034    0.527634
C     -5.949458    0.502746    0.192488
C     -5.603734    1.889468    0.747730
O     -4.656856    2.519074   -0.069977
H     -0.816439   -2.440004   -0.759576
H     -1.588922   -1.279791   -1.890417
H     -0.868378    0.633392   -0.452893
H     -0.200174   -0.513093    0.772426
H      1.410296   -1.382114   -0.930128
H      0.745037   -0.232691   -2.156524
H      1.357404    1.686576   -0.599056
H      2.135264    0.522488    0.505310
H      3.768081    1.686226   -1.019653
H      2.876660    1.110782   -2.440138
H      3.474895   -1.226546   -1.992611
H      4.921558   -0.209107   -2.112433
H      3.679716   -1.157309    0.571270
H      6.189593   -0.618835    1.274229
H      6.225632    0.436152   -0.166633
H      3.604906    1.371434    3.041816
H      4.482207   -2.882496   -0.479201
H     -3.151866   -2.499356   -0.291370
H     -2.381930   -1.643633    1.085824
H     -3.782424   -0.271111   -1.314015
H     -3.090406    0.552488    0.138839
H     -4.712446   -0.586345    1.623599
H     -5.329732   -1.559797    0.249192
H     -6.914940    0.184621    0.643010
H     -6.105206    0.560171   -0.907138
H     -6.530684    2.505015    0.767635
H     -5.219866    1.804047    1.789208
H     -4.463733    3.394439    0.355769
