38

C     -5.040931    0.485379   -0.326880
C     -3.862037   -0.021911   -1.166661
C     -2.653379    0.934057   -1.107661
C     -2.048799    1.142761    0.296338
C     -1.565256   -0.141569    0.998001
C     -0.530975   -0.969090    0.208163
C      0.742325   -0.207397   -0.203711
C      1.576400    0.258864    1.001321
C      2.839119    1.039253    0.591434
C      3.869945    0.237447   -0.224220
C      4.411728   -0.983868    0.529298
C      5.536439   -1.610732   -0.232415
O      6.724813   -1.256203   -0.014369
O      5.268716   -2.551618   -1.218709
O     -4.265932   -0.140605   -2.506262
H     -5.925976   -0.166209   -0.486972
H     -4.794209    0.455648    0.754528
H     -5.308405    1.523957   -0.616626
H     -3.553657   -1.023601   -0.790641
H     -1.863999    0.558849   -1.793180
H     -2.962058    1.927078   -1.502086
H     -1.200775    1.855143    0.214604
H     -2.795532    1.643129    0.948169
H     -2.439648   -0.788297    1.221620
H     -1.141041    0.132908    1.986429
H     -1.011701   -1.378823   -0.705423
H     -0.238453   -1.845681    0.826431
H      0.485711    0.657764   -0.850095
H      1.349678   -0.905319   -0.816837
H      0.964210    0.943551    1.624423
H      1.847255   -0.608752    1.638956
H      2.534369    1.929360   -0.001219
H      3.332276    1.418999    1.512887
H      3.435423   -0.076210   -1.196834
H      4.717194    0.920523   -0.455354
H      4.771295   -0.681148    1.537030
H      3.609942   -1.741412    0.655496
H     -4.814075   -0.966223   -2.572186
