35

C     -0.539483   -0.501465    1.980504
C     -1.131484   -0.846299    0.639561
C     -0.758115   -0.158434   -0.543221
C     -1.415745   -0.459325   -1.761923
C     -2.386854   -1.470833   -1.793960
C     -2.744193   -2.146404   -0.629219
C     -2.133721   -1.826643    0.581664
C     -1.089602    0.268958   -3.038590
N      0.276437    0.846126   -0.509345
C      1.598591    0.508603   -1.056001
N      2.375701   -0.239359   -0.073884
C      3.231014    0.280461    0.825506
C      3.715444   -0.747645    1.604405
C      3.095464   -1.882130    1.115929
N      2.280255   -1.548155    0.096931
C      0.078305    2.100237    0.182525
O      1.077711    2.743080    0.603632
C     -1.263075    2.674349    0.407585
O     -2.282734    2.177025   -0.140080
O     -1.400198    3.797422    1.217919
H     -0.565677   -1.378932    2.661199
H     -1.123069    0.323717    2.438942
H      0.517959   -0.186845    1.891248
H     -2.881461   -1.727002   -2.723027
H     -3.507085   -2.913557   -0.662911
H     -2.443277   -2.348791    1.478832
H     -1.990199    0.345552   -3.684509
H     -0.302827   -0.283623   -3.592524
H     -0.741502    1.303282   -2.835847
H      2.144398    1.430339   -1.355232
H      1.491512   -0.106140   -1.974153
H      3.480901    1.329581    0.914766
H      4.419924   -0.680546    2.422341
H      3.226220   -2.889798    1.486335
H     -2.309534    4.213197    1.380812
