30

C      6.057882   -1.829312    0.747922
C      4.740986   -1.283867    0.418895
C      3.655850   -0.834197    0.147636
C      2.362387   -0.298038   -0.175794
N      1.243557   -0.919813    0.278665
C      0.004798   -0.436731   -0.006588
N     -0.120617    0.677286   -0.778615
C      0.970522    1.336723   -1.250343
C      2.249396    0.853859   -0.957146
C      0.795683    2.553989   -2.100883
N     -1.153975   -1.139699    0.464075
C     -2.492122   -0.616328    0.414994
C     -3.566500   -1.492552    0.194614
C     -4.878653   -1.010062    0.164834
C     -5.129766    0.348803    0.370796
C     -4.069747    1.225494    0.615544
C     -2.756017    0.746940    0.645502
H      6.345857   -2.584615   -0.011976
H      6.805917   -1.010029    0.756789
H      6.020962   -2.307066    1.748546
H      3.131751    1.360567   -1.331183
H      1.397097    3.392196   -1.689939
H     -0.271315    2.861886   -2.125405
H      1.130243    2.336136   -3.136760
H     -1.022148   -2.125279    0.786511
H     -3.384441   -2.548042    0.035565
H     -5.700926   -1.690319   -0.015777
H     -6.145976    0.720744    0.349709
H     -4.266726    2.275155    0.791519
H     -1.953959    1.436171    0.873449
