26

C     -4.725926   -0.209548   -0.314392
C     -3.843526   -1.009653   -1.044050
C     -2.468603   -0.944755   -0.796649
C     -1.962659   -0.066472    0.179947
C     -2.862139    0.719314    0.922075
C     -4.235930    0.651558    0.670190
C     -0.512398    0.005920    0.473569
O     -0.148992    0.080013    1.678631
C      0.512401   -0.005966   -0.602756
O      0.148998   -0.080075   -1.807818
C      1.962660    0.066452   -0.309137
C      2.468590    0.944747    0.667456
C      3.843512    1.009670    0.914855
C      4.725925    0.209575    0.185200
C      4.235943   -0.651539   -0.799382
C      2.862153   -0.719316   -1.051268
H     -5.789742   -0.262370   -0.506690
H     -4.225779   -1.687430   -1.796426
H     -1.808512   -1.600000   -1.349795
H     -2.499535    1.393905    1.688126
H     -4.920908    1.266347    1.239725
H      1.808485    1.599979    1.220602
H      4.225755    1.687457    1.667229
H      5.789740    0.262414    0.377499
H      4.920932   -1.266315   -1.368918
H      2.499560   -1.393911   -1.817321
