29

C     -0.719620   -0.256589    0.862634
C     -2.207277    0.163155    0.893192
C     -2.736921    0.730990   -0.437623
C     -2.355433   -0.137601   -1.645515
C     -0.958442   -0.623986   -1.692465
C     -0.037664   -0.185328   -0.530745
C      1.268313   -1.020409   -0.587885
C      2.416420   -0.558206    0.342390
C      2.752351    0.893905    0.131615
O      2.256339    1.782607    0.876171
O      3.581728    1.260332   -0.923642
N      2.109619   -0.827284    1.748885
O     -2.021464   -1.469593   -1.308501
O     -2.248493    2.031139   -0.641636
H     -0.644105   -1.293368    1.258937
H     -0.162857    0.402126    1.562900
H     -2.822621   -0.724839    1.159647
H     -2.370624    0.907246    1.703432
H     -3.850044    0.757735   -0.389218
H     -2.897240   -0.055702   -2.611066
H     -0.556743   -0.851107   -2.702858
H      0.218111    0.876830   -0.733166
H      1.660239   -0.987920   -1.629292
H      1.033458   -2.087185   -0.377502
H      3.320129   -1.149223    0.068183
H      3.806156    2.233303   -1.094260
H      1.973085   -1.857835    1.865704
H      2.949615   -0.581689    2.322536
H     -2.756015    2.628497   -0.032150
