41

C     -4.297400    1.909244    0.485465
C     -4.094776    0.501434    1.074106
C     -5.406145   -0.003502    1.694204
C     -3.521226   -0.519219    0.048956
C     -4.350229   -0.594028   -1.208016
O     -5.276553   -1.441533   -1.304240
O     -4.117473    0.287253   -2.257660
N     -2.125395   -0.207055   -0.284401
C     -1.290798   -1.124616   -1.010828
O     -1.744285   -2.247660   -1.363049
C      0.132778   -0.762946   -1.362100
C      0.969063   -0.563967   -0.080485
N      2.401778   -0.504731   -0.375941
C      3.367533   -0.270841    0.657435
O      2.987104   -0.104678    1.849354
C      4.803347   -0.223935    0.318007
C      5.750004   -0.029622    1.245624
C      7.194398    0.013137    0.939677
O      8.014982   -0.092769    1.889265
N      7.691225    0.195420   -0.389788
N      0.160387    0.435824   -2.211247
H     -3.366202    2.282731    0.012484
H     -4.576089    2.618846    1.293512
H     -5.109133    1.910786   -0.272525
H     -3.360059    0.589877    1.905612
H     -5.254768   -1.001179    2.158534
H     -6.204228   -0.081396    0.925747
H     -5.746798    0.695276    2.487969
H     -3.530467   -1.521943    0.533149
H     -1.697975    0.679892    0.063255
H      0.572799   -1.612547   -1.933634
H      0.787131   -1.413279    0.614491
H      0.661771    0.373705    0.431414
H      2.742068   -0.654245   -1.353007
H      5.074014   -0.377037   -0.717003
H      5.464278    0.067480    2.286503
H      7.067753    0.447818   -1.186520
H      8.719777    0.162735   -0.566944
H     -0.180692    1.274434   -1.687725
H     -0.445582    0.288166   -3.051301
H      1.134080    0.618669   -2.544237
