43

C      0.309065    1.617863   -1.875056
C     -0.463476    0.479202   -1.250960
C      0.155951   -0.617709   -0.757698
C      1.651740   -0.799742   -0.706083
C      2.223519   -0.215736    0.590707
C      3.727553   -0.371749    0.634690
C      4.497662    0.447251   -0.115083
C      6.000100    0.373738   -0.138892
O      6.504404    1.352038   -1.004159
C      4.338025   -1.429987    1.522852
C     -1.973495    0.553603   -1.197671
C     -2.452320    0.875279    0.222589
C     -3.958646    0.914131    0.282677
C     -4.741656   -0.164261    0.511597
C     -4.158224   -1.528694    0.795803
C     -6.243031    0.012766    0.506400
O     -6.685571    0.378818   -0.772190
H     -0.365091    2.446196   -2.177031
H      1.042058    2.030033   -1.152207
H      0.841672    1.261967   -2.781601
H     -0.447641   -1.419406   -0.338966
H      2.138254   -0.347586   -1.596005
H      1.871075   -1.889261   -0.733171
H      1.961917    0.860263    0.684257
H      1.755565   -0.734271    1.455711
H      4.016540    1.200689   -0.734899
H      6.314848   -0.632648   -0.493573
H      6.394838    0.546667    0.886780
H      7.492129    1.257571   -0.980504
H      4.942363   -2.134081    0.913419
H      4.985124   -0.954798    2.289587
H      3.557254   -2.019737    2.046760
H     -2.402773   -0.409920   -1.547275
H     -2.347592    1.339005   -1.889957
H     -2.066315    1.877561    0.509572
H     -2.044011    0.148025    0.955774
H     -4.429919    1.877457    0.103315
H     -3.509157   -1.854103   -0.042343
H     -3.565480   -1.499141    1.733862
H     -4.953908   -2.292166    0.920320
H     -6.519324    0.813708    1.224870
H     -6.766769   -0.911805    0.837500
H     -6.627259   -0.437030   -1.335298
