26

C     -1.032057    1.405063   -0.166633
C     -2.393369    0.717379   -0.118857
C     -2.437093   -0.311277    1.018732
C     -1.243457   -1.280898    0.976686
C      0.002973   -0.920287    0.241647
C      0.068506    0.401589   -0.558921
C      1.456060    1.060730   -0.425508
C      2.541928    0.214277   -1.035957
O      2.678357    0.202935   -2.288692
C      3.429524   -0.621031   -0.209991
O      3.304767   -0.644727    1.043953
O      4.413245   -1.394157   -0.819171
O     -0.123993   -0.710102    1.626508
O     -3.621686   -1.057649    0.928153
H     -1.068812    2.224012   -0.918036
H     -0.810281    1.862012    0.823774
H     -2.599449    0.220301   -1.092886
H     -3.182001    1.482709    0.048981
H     -2.416638    0.225408    1.997113
H     -1.377834   -2.332851    1.306352
H      0.700274   -1.751911    0.008630
H     -0.089680    0.140211   -1.629220
H      1.676338    1.271562    0.643599
H      1.450508    2.040628   -0.951673
H      5.032308   -1.976451   -0.267810
H     -4.358439   -0.467475    1.236772
