17

C     -1.542119   -0.945729    0.410265
C     -0.957339   -0.422390   -0.903284
C      0.091522    0.697625   -0.736420
C      1.449178    0.205785   -0.182634
C      1.440159   -0.088953    1.288607
O      1.224034    0.829632    2.122407
O      1.713262   -1.373958    1.740830
O     -0.431662    1.746846    0.038377
H     -1.890212   -0.111081    1.054094
H     -2.412085   -1.599092    0.188107
H     -0.797618   -1.556142    0.957458
H     -0.517306   -1.270635   -1.471357
H     -1.795956   -0.021137   -1.513505
H      0.288807    1.081593   -1.765074
H      1.773456   -0.699029   -0.740892
H      2.214880    0.989629   -0.368802
H      0.148998    2.537037   -0.118178
