33

C      2.599809    1.432891    0.331438
C      3.129441    1.155694   -1.074850
C      3.022858   -0.343194   -1.426369
N      2.024157   -1.058596   -0.609065
C      0.802949   -0.251960   -0.417686
C      1.137765    0.976718    0.472580
C     -0.334359   -1.108558    0.215991
C     -1.557409   -0.278735    0.568805
C     -2.015537   -0.229959    1.898407
C     -3.137375    0.534187    2.233524
C     -3.814770    1.254924    1.247505
C     -3.372546    1.212237   -0.076508
C     -2.251519    0.449852   -0.417501
C     -0.753799   -2.255296   -0.667701
O     -0.957880   -2.077218   -1.899340
O     -0.955463   -3.514149   -0.110238
H      3.231272    0.887727    1.067573
H      2.677679    2.518693    0.555769
H      2.538478    1.751264   -1.805379
H      4.188060    1.486548   -1.148393
H      2.779780   -0.447919   -2.507993
H      4.011887   -0.821917   -1.260588
H      1.792092   -1.942241   -1.118701
H      0.455950    0.120672   -1.409756
H      0.464721    1.816805    0.192792
H      0.954812    0.747973    1.545717
H      0.083370   -1.554772    1.146765
H     -1.504005   -0.780523    2.677959
H     -3.481627    0.567560    3.259135
H     -4.682882    1.845918    1.509330
H     -3.899001    1.770346   -0.839948
H     -1.926421    0.430175   -1.449354
H     -1.250486   -4.295149   -0.683920
