20

C      1.928101   -0.897568   -0.151149
C      0.561529   -1.129120    0.027393
C     -0.294398   -0.079877    0.412390
C      0.249034    1.199428    0.628016
C      1.617819    1.429877    0.449120
C      2.456421    0.378280    0.057570
O      2.133595    2.706019    0.663862
C     -1.775685   -0.323111    0.624506
C     -2.408527   -0.946208   -0.594842
O     -2.753261   -2.157968   -0.591126
O     -2.590973   -0.191598   -1.750052
O     -1.998234   -1.096805    1.778550
H      2.578750   -1.709009   -0.450760
H      0.170899   -2.125427   -0.137296
H     -0.387773    2.020212    0.934585
H      3.516292    0.548303   -0.082824
H      3.119719    2.905826    0.543307
H     -2.289343    0.649712    0.783164
H     -2.310168    0.780993   -1.789148
H     -1.523796   -1.961960    1.667380
