15

C     -0.333204    1.573424   -0.429739
C      0.066426    0.270253    0.273576
C     -1.053006   -0.779947    0.201772
O     -1.340062   -1.112893   -1.129666
C      1.353498   -0.273847   -0.285135
O      1.489436   -0.450966   -1.526300
O      2.392103   -0.608861    0.578165
H      0.476375    2.326874   -0.322429
H     -1.255415    1.987721    0.030702
H     -0.520412    1.402468   -1.511562
H      0.232121    0.510114    1.347262
H     -1.967671   -0.376835    0.692140
H     -0.738022   -1.692299    0.757194
H     -2.064781   -1.789878   -1.093977
H      3.262612   -0.985329    0.222243
