43

C     -5.777217    1.477522    2.953210
C     -5.116122    2.060334    1.704596
C     -4.640481    0.979035    0.717562
C     -3.486421    0.109442    1.245171
C     -2.248298    0.922612    1.534893
C     -1.310261    1.242795    0.624326
C     -1.296673    0.754782   -0.803843
C     -0.637796   -0.626733   -0.930782
C      0.868624   -0.580181   -0.633952
C      1.509721   -1.961881   -0.832110
C      2.987171   -1.995802   -0.410059
C      3.895792   -1.215827   -1.371910
C      5.369849   -1.385997   -0.992000
C      6.246579   -0.611125   -1.928750
O      6.746823   -1.180918   -2.934977
N      6.482726    0.779911   -1.712467
H     -6.580648    0.763988    2.672011
H     -5.028639    0.962566    3.589998
H     -6.227518    2.299127    3.549166
H     -5.861577    2.700299    1.184668
H     -4.269955    2.715790    2.002127
H     -4.322692    1.479006   -0.221951
H     -5.496793    0.319232    0.457907
H     -3.266900   -0.692319    0.510811
H     -3.800924   -0.408529    2.174610
H     -2.129783    1.305981    2.544329
H     -0.483846    1.871088    0.944077
H     -2.325752    0.716129   -1.216094
H     -0.736536    1.486069   -1.425738
H     -0.789883   -0.989788   -1.970788
H     -1.131839   -1.348123   -0.244987
H      1.346316    0.154592   -1.316234
H      1.029252   -0.248831    0.415004
H      1.414272   -2.275073   -1.895012
H      0.960299   -2.704091   -0.212187
H      3.312981   -3.059078   -0.391849
H      3.093709   -1.593833    0.621503
H      3.740329   -1.584318   -2.410076
H      3.638974   -0.135417   -1.335911
H      5.648057   -2.462086   -1.031783
H      5.536257   -1.026385    0.046728
H      7.082078    1.321884   -2.373687
H      6.056746    1.271364   -0.895550
