21

C      3.406290   -0.373992   -0.987916
C      2.289381   -0.284887   -0.004728
O      1.944866   -1.310794    0.642547
O      1.670192    0.948852    0.224295
C      0.582619    1.122785    1.130217
C     -0.671492    0.509419    0.569527
C     -1.281536    1.073233   -0.562791
C     -2.437233    0.497765   -1.100189
C     -2.988447   -0.644883   -0.513763
C     -2.383983   -1.214698    0.610257
C     -1.228213   -0.642209    1.150918
H      4.375708   -0.282326   -0.455637
H      3.320804    0.444043   -1.733538
H      3.369702   -1.348316   -1.519414
H      0.842078    0.691373    2.122002
H      0.415453    2.210483    1.279118
H     -0.860753    1.956022   -1.028321
H     -2.904467    0.936679   -1.972266
H     -3.882506   -1.089656   -0.931242
H     -2.810120   -2.101272    1.061788
H     -0.768344   -1.097620    2.019137
