47

C     -1.695333   -2.524443   -0.356218
C     -2.024108   -1.313949    0.527577
C     -3.387357   -1.487475    1.258013
C     -4.035211   -0.111761    1.563723
C     -2.941888    0.949505    1.786207
C     -2.036934    1.039043    0.519566
O     -2.038407   -0.144537   -0.277108
O     -0.710998    1.373287    0.881001
C     -0.047525    2.076679   -0.157697
C      1.368748    1.518080   -0.381031
C      1.357281    0.049467   -0.906519
C      2.755370   -0.516499   -1.281966
C      3.554127    0.335601   -2.329875
C      4.628443    1.249273   -1.710844
O      5.188751    2.057334   -2.707590
O      4.142956   -0.499770   -3.292665
O      3.511096   -0.728901   -0.113078
O      0.463990   -0.112756   -1.984405
O      2.133906    1.634730    0.795578
O     -2.172002    0.616492    2.915781
O     -4.853080    0.294209    0.494479
O     -3.195996   -2.179029    2.470277
O     -2.586903   -2.597622   -1.435899
H     -0.653852   -2.423915   -0.739787
H     -1.750018   -3.459097    0.247061
H     -1.204350   -1.245071    1.282736
H     -4.092450   -2.069145    0.622305
H     -4.659163   -0.184370    2.484761
H     -3.422891    1.944294    1.951115
H     -2.501839    1.847060   -0.095816
H     -0.579942    2.063554   -1.139189
H      0.037109    3.136989    0.150573
H      1.839079    2.169044   -1.150534
H      0.980568   -0.596093   -0.080371
H      2.545019   -1.509453   -1.743179
H      2.851035    0.992549   -2.881268
H      5.427453    0.631742   -1.243218
H      4.176931    1.891619   -0.921336
H      5.804888    2.682995   -2.243237
H      4.790388   -1.087405   -2.824099
H      4.234463   -1.366849   -0.346985
H      0.683859    0.565701   -2.670989
H      1.750071    1.017615    1.472646
H     -2.715581    0.853097    3.713321
H     -5.622651   -0.328967    0.467226
H     -2.994579   -3.122951    2.244686
H     -2.302469   -3.379904   -1.976517
