16

C      0.310395    1.167270    0.394931
C     -1.118619    0.605966    0.409592
C     -1.289572   -0.464631   -0.679581
O     -0.421159   -1.583821   -0.535877
C      0.824021   -1.286112    0.087237
C      1.319244    0.148497   -0.154324
H      0.595243    1.456152    1.430219
H      0.346343    2.084786   -0.232196
H     -1.330963    0.147085    1.400217
H     -1.848684    1.428550    0.249165
H     -2.337293   -0.831039   -0.650863
H     -1.131332   -0.007059   -1.680559
H      1.586670   -1.991767   -0.304194
H      0.738006   -1.472029    1.180126
H      1.450743    0.303325   -1.247821
H      2.306956    0.294827    0.333928
