24

C     -1.494088   -0.040592   -0.173768
C     -0.839279   -1.248884    0.535698
C      0.680986   -1.367235    0.272075
C      1.426762   -0.030898    0.497957
C      0.762026    1.171682   -0.217864
C     -0.739485    1.272927    0.125860
O     -0.902763    1.598638    1.483721
O      0.925381    1.091377   -1.611389
O      2.765391   -0.166966    0.094362
O      0.965503   -1.934131   -0.985215
O     -1.475117   -2.441872    0.153452
O     -1.569927   -0.267177   -1.558439
H     -2.530611    0.057735    0.227932
H     -0.968528   -1.108784    1.635583
H      1.077489   -2.081571    1.027383
H      1.402795    0.172861    1.595121
H      1.250824    2.106355    0.147012
H     -1.193605    2.080941   -0.495352
H     -0.684690    2.562724    1.578497
H      1.851455    1.385967   -1.814318
H      3.266552    0.587747    0.500938
H      0.625891   -1.329340   -1.688609
H     -2.367063   -2.445603    0.589918
H     -2.235898    0.374098   -1.920554
