46

C      7.110077    1.813421    0.838560
C      5.979736    0.791808    0.924870
C      5.622881    0.243830   -0.464630
C      4.582566   -0.885973   -0.405902
C      3.182588   -0.383333   -0.021798
C      2.148961   -1.516052   -0.118469
C      0.761995   -1.102327    0.400113
C      0.033673   -0.145525   -0.559980
C     -1.355666    0.265290   -0.044768
C     -2.396070   -0.860561   -0.183893
C     -3.799754   -0.421779    0.266545
C     -4.532928    0.400070   -0.810520
C     -5.882059    0.981632   -0.341017
C     -6.930173   -0.098951   -0.018476
O     -6.689540   -0.665418    1.240510
O     -5.683041    1.826769    0.763526
H      8.026013    1.342297    0.422437
H      7.340409    2.199849    1.853778
H      6.810297    2.666487    0.193141
H      6.299318   -0.040967    1.588438
H      5.095394    1.286748    1.378626
H      6.543836   -0.163617   -0.936783
H      5.249183    1.067285   -1.112172
H      4.530612   -1.355839   -1.412704
H      4.915759   -1.666675    0.312783
H      3.198645    0.002974    1.019385
H      2.896818    0.443440   -0.705722
H      2.068177   -1.867802   -1.170515
H      2.501794   -2.373526    0.496006
H      0.859404   -0.633902    1.403969
H      0.162212   -2.028664    0.518434
H      0.633714    0.781612   -0.673109
H     -0.059382   -0.611053   -1.565612
H     -1.283309    0.586182    1.017595
H     -1.684718    1.144955   -0.636079
H     -2.090918   -1.715078    0.455734
H     -2.432172   -1.223272   -1.234645
H     -4.386312   -1.342535    0.469901
H     -3.728150    0.152038    1.216030
H     -3.895987    1.251364   -1.129133
H     -4.700210   -0.236509   -1.707075
H     -6.276067    1.584861   -1.192557
H     -7.938772    0.371849   -0.017584
H     -6.918883   -0.888304   -0.803438
H     -7.388017   -1.358561    1.368865
H     -6.501932    2.381462    0.851781
