33

C     -5.143916   -1.606996    0.197561
C     -3.729408   -1.167270    0.004864
O     -2.791447   -1.858195    0.487317
N     -3.444452    0.010340   -0.762426
C     -2.083343    0.493346   -0.984389
C     -1.539973    1.161285    0.280663
C     -0.142309    1.654480    0.056462
C      0.233171    2.934171   -0.340408
N      1.573130    2.999094   -0.513740
C      2.043059    1.768868   -0.242219
C      1.025866    0.919380    0.103560
C      1.258033   -0.421488    0.407188
C      2.583356   -0.896658    0.359546
C      3.636411   -0.007688    0.003866
C      3.365833    1.338309   -0.302517
O      2.814101   -2.245261    0.667725
C      4.097011   -2.862540    0.660119
H     -5.208814   -2.366751    1.005251
H     -5.773336   -0.736036    0.476072
H     -5.525772   -2.047084   -0.746926
H     -4.233734    0.513599   -1.227228
H     -1.430527   -0.353045   -1.291602
H     -2.092278    1.236199   -1.812189
H     -2.194136    2.015925    0.558746
H     -1.541428    0.441722    1.126546
H     -0.438254    3.767091   -0.503777
H      2.124933    3.833720   -0.812713
H      0.442219   -1.082260    0.671462
H      4.661174   -0.349681   -0.040615
H      4.162242    2.016888   -0.579698
H      4.541830   -2.806184   -0.355846
H      3.987361   -3.929952    0.941117
H      4.763397   -2.367326    1.397628
