29

C     -3.385194   -0.455999   -0.591715
C     -2.020305   -0.031784   -0.033437
C     -1.293193   -1.251459    0.568439
C      0.086627   -0.862907    1.114028
C      0.950699   -0.217834    0.012953
C      0.239766    1.010670   -0.588028
C     -1.150865    0.631154   -1.133446
O     -1.785993    1.766344   -1.668247
C      2.336717    0.141089    0.532922
C      2.501440    1.027809    1.529769
C      3.559900   -0.500640   -0.069755
H     -3.995059   -0.929260    0.207203
H     -3.941635    0.428933   -0.966532
H     -3.260484   -1.181275   -1.424349
H     -2.198833    0.705693    0.781543
H     -1.898700   -1.674562    1.399581
H     -1.173142   -2.043783   -0.203773
H     -0.047339   -0.163217    1.967625
H      0.593302   -1.776154    1.495653
H      1.059567   -0.967497   -0.802378
H      0.127216    1.804645    0.182292
H      0.854756    1.422688   -1.418042
H     -1.008883   -0.096736   -1.963303
H     -1.932319    2.407884   -0.924405
H      1.654061    1.517515    1.997619
H      3.494471    1.276332    1.892780
H      4.114913   -1.059009    0.713629
H      4.222432    0.282129   -0.496175
H      3.296076   -1.210770   -0.880537
