8

C     -0.668265   -0.403051    0.056075
C      0.762905   -0.161186   -0.064634
N     -0.190503    0.864764   -0.525960
H     -1.107129   -1.071671   -0.713808
H     -1.097008   -0.282511    1.075497
H      1.288777    0.120622    0.874298
H      1.264355   -0.670833   -0.913859
H     -0.253132    1.603866    0.212390
