43

C     -2.534552    1.675659   -3.807871
O     -1.910494    0.987393   -2.728983
C     -2.597127    0.383946   -1.661713
C     -4.001812    0.407537   -1.576665
C     -4.661040   -0.186798   -0.494540
C     -3.927384   -0.811327    0.525748
C     -2.523272   -0.838110    0.441517
C     -1.856379   -0.258431   -0.649942
C     -0.347602   -0.277650   -0.689762
C      0.225809    0.983025   -0.034985
N      1.693562    0.977881   -0.116788
C      2.297334    0.324855    1.055310
C      3.791651    0.121650    0.888879
C      4.390086    0.165086   -0.389287
C      5.765544   -0.024199   -0.539787
C      6.563548   -0.277082    0.574353
C      5.985899   -0.360314    1.841182
C      4.606998   -0.183396    2.009142
O      4.083117   -0.331064    3.295897
O     -4.619237   -1.390261    1.603453
C     -3.998117   -2.050454    2.701638
C     -6.101087   -0.144528   -0.435624
N     -7.256879   -0.110611   -0.388307
H     -3.114608    2.541320   -3.424040
H     -3.200339    0.985137   -4.367349
H     -1.752058    2.051166   -4.498504
H     -4.589956    0.889856   -2.346784
H     -1.939206   -1.306758    1.222400
H      0.009340   -0.347016   -1.740260
H      0.029187   -1.182587   -0.166821
H     -0.164522    1.870156   -0.583127
H     -0.125837    1.067781    1.019187
H      2.017869    1.974199   -0.122395
H      2.109100    0.959786    1.949610
H      1.837450   -0.672491    1.224293
H      3.800951    0.346662   -1.278505
H      6.213088    0.023115   -1.524261
H      7.629443   -0.422483    0.454781
H      6.610607   -0.579164    2.698047
H      3.093606   -0.302151    3.502744
H     -3.416300   -2.925266    2.341927
H     -3.334052   -1.345507    3.245044
H     -4.782329   -2.408564    3.399541
