36

C      4.305607   -0.254829    1.305520
C      3.321649    0.914594    1.327913
C      3.397823    1.783065    0.061426
C      2.924413    1.084118   -1.227338
C      1.420856    0.736655   -1.225616
C      1.167565   -0.758710   -0.995169
O     -0.232105   -1.031079   -0.993078
C     -1.074300   -0.716816    0.080693
O     -0.591797   -0.265886    1.155882
C     -2.526282   -0.975555   -0.032613
C     -2.938660   -2.109607   -0.754976
C     -4.286045   -2.467352   -0.812636
C     -5.241511   -1.699537   -0.150803
C     -4.856822   -0.557118    0.552072
C     -3.505862   -0.165482    0.605342
C     -3.173461    1.118754    1.265205
O     -3.850486    1.516030    2.251823
O     -2.150456    1.923697    0.770957
H      5.339011    0.111456    1.127884
H      4.279713   -0.776613    2.285266
H      4.034430   -0.987118    0.518092
H      2.289139    0.540606    1.485923
H      3.570075    1.555757    2.201243
H      4.447103    2.122343   -0.081449
H      2.785325    2.697466    0.220158
H      3.550025    0.191159   -1.440141
H      3.110890    1.790384   -2.065910
H      0.989597    1.004859   -2.215055
H      0.877492    1.338660   -0.465746
H      1.632835   -1.336179   -1.822125
H      1.620595   -1.105812   -0.043565
H     -2.211497   -2.740849   -1.251394
H     -4.588203   -3.349704   -1.361997
H     -6.285474   -1.982376   -0.193196
H     -5.623288    0.041065    1.029876
H     -1.927893    2.809954    1.208113
