27

C     -2.716782   -0.993540    1.666654
C     -3.754507   -0.624144    0.782006
C     -3.483766    0.186302   -0.335887
C     -2.169301    0.607914   -0.531867
C     -1.162889    0.251701    0.329061
C     -1.399030   -0.554695    1.442708
C     -0.002156    0.821828   -0.155548
C     -0.369363    1.495175   -1.316928
N     -1.697756    1.365936   -1.537224
C      1.388009    0.672249    0.390966
C      2.020185   -0.657907   -0.053200
C      3.347977   -0.874513    0.632314
O      3.512290   -1.885472    1.364950
O      4.402390    0.021587    0.468755
N      2.172098   -0.698691   -1.510113
H     -2.936405   -1.619620    2.521601
H     -4.764089   -0.969013    0.963585
H     -4.271100    0.469965   -1.022225
H     -0.598496   -0.836825    2.114113
H      0.301036    2.039081   -1.969634
H     -2.240512    1.764128   -2.335541
H      1.342219    0.713072    1.501086
H      2.008143    1.529253    0.050018
H      1.334154   -1.482429    0.247243
H      4.315576    0.847440   -0.110235
H      2.848563    0.037662   -1.816774
H      2.573510   -1.626445   -1.779886
