23

C     -1.892506   -0.835939    1.483235
N     -1.174089   -0.851405    0.206350
C     -0.777323    0.505931   -0.213138
C      0.274189    0.420375   -1.331765
C      1.529829   -0.239941   -0.845023
C      1.850026   -1.574425   -0.954531
N      3.026679   -1.797132   -0.335596
C      3.388154   -0.586545    0.142408
N      2.494345    0.377674   -0.146257
C     -1.970784    1.306700   -0.684611
O     -2.606984    0.950254   -1.712081
O     -2.390781    2.433792    0.016641
H     -1.252588   -0.404763    2.282716
H     -2.836619   -0.254701    1.402677
H     -2.146158   -1.877257    1.772996
H     -1.793711   -1.283336   -0.519371
H     -0.303442    1.039320    0.642696
H     -0.130921   -0.147875   -2.197920
H      0.528237    1.443618   -1.685533
H      1.261559   -2.339837   -1.442952
H      4.295793   -0.413246    0.705255
H      2.539125    1.384553    0.126647
H     -1.912031    2.744184    0.853457
