44

C     -2.879892    3.624740   -1.540606
O     -1.850871    2.649209   -1.414518
C     -2.020714    1.396937   -0.806892
C     -3.246510    0.971643   -0.244031
C     -3.358520   -0.307791    0.362733
C     -2.224511   -1.143880    0.418518
C     -1.032187   -0.705055   -0.156668
C     -0.937395    0.524023   -0.741249
O      0.335407    0.762215   -1.215117
C      1.182363   -0.361254   -0.962443
C      0.288299   -1.398097   -0.208455
C      0.196161   -2.705615   -0.944859
O     -0.355366   -2.768401   -2.076325
O      0.749000   -3.851697   -0.388199
C      2.378016    0.050704   -0.134730
C      3.638486   -0.512145   -0.394076
C      4.754480   -0.166687    0.393956
C      4.594591    0.738870    1.452300
C      3.334932    1.287788    1.723838
C      2.232467    0.941796    0.941034
O      5.695094    1.085996    2.234223
O      6.030817   -0.701798    0.158963
C      6.337562   -1.630962   -0.875515
C     -4.618894   -0.787648    0.980255
C     -5.832378   -0.321844    0.651880
C     -7.064734   -0.830743    1.276377
O     -7.024767   -1.716727    2.171525
O     -8.293208   -0.323972    0.873467
H     -3.235717    3.936188   -0.535820
H     -3.723679    3.215001   -2.135113
H     -2.474179    4.513909   -2.065100
H     -4.092426    1.642071   -0.252922
H     -2.269828   -2.118471    0.889238
H      1.520553   -0.758048   -1.946282
H      0.642756   -1.575526    0.831598
H      3.741776   -1.217923   -1.207404
H      3.208508    1.980418    2.546219
H      1.264609    1.366022    1.177329
H      5.612836    1.736426    3.006946
H      6.118685   -1.183512   -1.868044
H      7.417142   -1.881342   -0.829286
H      5.750338   -2.563407   -0.737775
H     -4.543537   -1.591198    1.704120
H     -5.945568    0.433536   -0.113094
