40

C      5.820378    1.761513    0.223385
C      4.321236    1.793345    0.180352
O      3.730903    2.720326    0.713504
C      3.534655    0.706161   -0.502825
C      2.853104   -0.178022    0.503228
O      3.525831   -0.687409    1.440000
C      1.413540   -0.500074    0.376922
C      0.465848    0.537133    0.481173
C     -0.913655    0.268768    0.343464
C     -1.341360   -1.052637    0.117357
C     -0.395771   -2.083636    0.016008
C      0.976545   -1.827505    0.150842
C      1.945610   -2.976004   -0.032238
C      2.552071   -2.942925   -1.399660
O      1.836460   -3.148780   -2.415224
O      3.907968   -2.684578   -1.554891
C     -2.786363   -1.348302   -0.018628
O     -3.163851   -2.505588   -0.352125
C     -3.790299   -0.294462    0.257855
C     -3.372031    1.025454    0.549792
C     -1.927060    1.356082    0.406476
O     -1.566366    2.551374    0.236430
C     -4.350118    1.993115    0.910877
C     -5.707560    1.660482    0.859855
C     -6.111244    0.371782    0.521837
C     -5.160858   -0.606167    0.240428
O     -4.023607    3.275331    1.358649
O      0.901207    1.833169    0.746734
H      6.160597    1.761189    1.280106
H      6.225668    2.659296   -0.288458
H      6.220783    0.854631   -0.276091
H      2.792326    1.169288   -1.188142
H      4.203007    0.075971   -1.126109
H     -0.727995   -3.097373   -0.173856
H      1.431355   -3.952269    0.103220
H      2.741876   -2.945654    0.738581
H     -6.454902    2.401681    1.114152
H     -7.164712    0.123785    0.500805
H     -5.499794   -1.608021    0.008061
H     -3.103424    3.539529    1.681092
