26

C      2.981370   -1.288372    0.357186
C      2.096578   -0.031704    0.359653
C      2.399736    0.805784   -0.853894
O      1.927933    0.484823   -1.977148
O      3.235971    1.914558   -0.758488
N      0.674957   -0.393666    0.377147
C     -0.350457    0.563317    0.676859
O     -0.048380    1.743767    1.000331
C     -1.787908    0.156594    0.644793
C     -2.632594    0.869547   -0.343598
O     -2.126703   -0.421150   -0.594878
C     -4.103545    0.832331   -0.082970
O     -4.566195    1.356044    0.964971
N     -4.989703    0.242208   -1.032940
N      2.747505   -2.081089    1.561206
H      4.054503   -0.993786    0.309113
H      2.752250   -1.907003   -0.539164
H      2.331067    0.553336    1.276520
H      3.649959    2.187420    0.124746
H      0.387421   -1.373060    0.149490
H     -2.250083   -0.387661    1.495609
H     -2.188715    1.627843   -1.023194
H     -4.620995   -0.174267   -1.916609
H     -6.018352    0.224876   -0.854631
H      3.130705   -1.554137    2.379653
H      3.313676   -2.956554    1.480639
