32

C     -4.296993   -0.449693    0.506663
C     -3.183973   -0.431394   -0.508680
C     -1.942813   -0.040508   -0.146146
C     -0.781182    0.002238   -1.108867
C      0.468826    0.487001   -0.418244
C      0.720697    1.863741   -0.265980
C      1.871227    2.291016    0.408900
C      2.765042    1.360151    0.941723
C      2.523951   -0.016482    0.807150
C      1.363977   -0.443817    0.135186
C      3.485792   -1.018960    1.415247
C      3.957167   -2.018193    0.392398
O      3.421492   -3.155099    0.304759
O      4.963768   -1.667229   -0.498378
O      2.914537   -1.653662    2.533513
O     -0.173966    2.802129   -0.780531
C     -3.498450   -0.857809   -1.920811
H     -3.956557   -0.117398    1.510837
H     -5.112535    0.225757    0.173294
H     -4.697626   -1.481070    0.597367
H     -1.764793    0.258048    0.884809
H     -1.023410    0.674264   -1.959946
H     -0.610849   -1.013379   -1.527634
H      2.071160    3.348445    0.527044
H      3.643773    1.716786    1.464565
H      1.156561   -1.502906    0.041474
H      4.392449   -0.485676    1.774759
H      2.083262   -2.110506    2.240197
H     -0.015040    3.797945   -0.681069
H     -2.879999   -1.736388   -2.200264
H     -4.567494   -1.142833   -2.018833
H     -3.298000   -0.022883   -2.624504
