37

C      3.306407    2.998848   -2.160731
O      3.905305    1.899197   -1.482644
C      3.190171    0.874717   -0.842399
C      1.783649    0.845267   -0.815933
C      1.102424   -0.201857   -0.177723
C      1.839122   -1.207418    0.469897
C      3.246037   -1.189390    0.449848
C      3.910228   -0.147863   -0.211104
O      5.300772   -0.126223   -0.236689
O      4.016121   -2.182201    1.076182
C      3.477567   -3.298720    1.776979
C     -0.378124   -0.194818   -0.148010
C     -1.131802   -1.371691   -0.368495
C     -2.529639   -1.320230   -0.311904
C     -3.166031   -0.105339   -0.060385
C     -4.559863    0.034137    0.005369
C     -5.115751    1.299174    0.253634
C     -4.301744    2.427796    0.435786
O     -4.831716    3.549069    0.655938
C     -2.906916    2.321630    0.375802
C     -2.311172    1.084910    0.133533
O     -0.991958    0.966600    0.077890
O     -5.389859   -1.072583   -0.174561
O     -0.496341   -2.576584   -0.669287
H      2.680542    2.633645   -3.002247
H      4.105105    3.651037   -2.569456
H      2.689291    3.593079   -1.454104
H      1.212188    1.626193   -1.300272
H      1.315451   -1.985517    1.007577
H      4.310966   -3.922840    2.159383
H      2.856229   -3.915264    1.093468
H      2.869533   -2.951474    2.638889
H     -3.106495   -2.222105   -0.476610
H     -6.192606    1.406973    0.304624
H     -2.287755    3.199284    0.518666
H     -6.399023   -0.992002   -0.130941
H     -1.020310   -3.427436   -0.837541
