34

C      2.965299   -0.208628    0.265840
C      4.132673    0.781569    0.283508
N      5.180774    0.338759   -0.630388
C      1.839921    0.243285    1.201404
O      0.803997   -0.722288    1.215698
C     -0.239052   -0.365154    0.328010
C     -1.098863   -1.615654    0.067435
C     -2.304179   -1.251836   -0.825540
C     -3.034923   -0.005074   -0.288451
C     -2.014240    1.115354    0.022236
O     -1.024738    0.654389    0.927243
C     -2.712268    2.312823    0.606024
O     -2.803311    2.448326    1.855228
O     -3.308429    3.256266   -0.225986
O     -3.826350   -0.320145    0.834420
O     -3.204003   -2.328547   -0.895236
O     -0.309640   -2.589159   -0.567474
H      2.575515   -0.294094   -0.771401
H      3.324982   -1.210470    0.587597
H      4.543934    0.867695    1.314569
H      3.770587    1.783260   -0.037307
H      5.626929   -0.516931   -0.226364
H      5.920283    1.077933   -0.648074
H      2.245031    0.318411    2.233137
H      1.490021    1.266652    0.924232
H      0.183068   -0.024394   -0.650989
H     -1.461669   -2.002514    1.049258
H     -1.929050   -1.006744   -1.848806
H     -3.718657    0.358087   -1.087353
H     -1.537178    1.451590   -0.928114
H     -3.275608    3.162301   -1.234084
H     -3.221063   -0.549990    1.585665
H     -2.853750   -2.955385   -1.580752
H     -0.726043   -3.469693   -0.375651
