38

C     -0.849762   -2.968467    0.066649
C     -1.566995   -1.651883    0.241171
C     -2.805279   -1.684960    0.761513
C     -3.653832   -0.489038    0.833759
O     -4.799781   -0.569252    1.350254
C     -3.194728    0.806868    0.240117
C     -1.649900    0.937343    0.293928
C     -0.971926   -0.354484   -0.335918
C      0.526018   -0.336989   -0.049657
C      1.426009    0.220891   -0.873750
C      2.879244    0.258554   -0.576088
C      3.736138    0.276340   -1.614889
C      5.202754    0.242256   -1.481466
O      5.923155    0.311167   -2.511197
C      3.368342    0.265843    0.854122
O     -1.158841   -0.377713   -1.735942
C     -1.224261    1.139683    1.775834
C     -1.254539    2.213442   -0.487916
H     -1.513920   -3.700738   -0.440621
H     -0.559482   -3.369104    1.060621
H      0.062046   -2.862706   -0.556567
H     -3.212741   -2.621363    1.126251
H     -3.673566    1.651307    0.784300
H     -3.557494    0.855828   -0.808789
H      0.860390   -0.782501    0.879783
H      1.093316    0.632008   -1.819720
H      3.340723    0.289256   -2.624947
H      5.683950    0.146961   -0.518187
H      4.182443    1.008574    0.987015
H      2.564010    0.569065    1.555562
H      3.733467   -0.745006    1.131884
H     -2.118297   -0.543731   -1.926740
H     -1.409586    0.225402    2.377581
H     -0.145214    1.391010    1.855396
H     -1.790140    1.977295    2.237911
H     -1.532075    2.130543   -1.560072
H     -1.775750    3.102506   -0.070997
H     -0.163896    2.405795   -0.420187
