41

C      4.614763   -0.166087    2.194750
C      5.557994    0.767879    1.712479
C      5.306166    1.490084    0.531916
C      4.111495    1.241230   -0.142505
C      3.203839    0.318933    0.314114
C      3.414722   -0.392355    1.496866
C      2.135298    0.344725   -0.563170
C      2.444569    1.320561   -1.505347
N      3.660626    1.854504   -1.250572
C      0.873254   -0.407666   -0.476253
C      0.691172   -1.772805   -0.289005
N     -0.626979   -2.050111   -0.245070
C     -1.285336   -0.885108   -0.407447
C     -0.385804    0.153085   -0.572843
C     -2.755680   -0.783369   -0.471998
C     -3.619753   -1.795487   -0.882084
N     -4.901770   -1.370320   -0.843857
C     -4.860489   -0.102185   -0.402448
C     -3.568526    0.295462   -0.157511
C     -3.284978    1.558782    0.369557
C     -4.362039    2.432815    0.608002
C     -5.686067    2.027514    0.330996
C     -5.946080    0.741929   -0.174221
O     -4.121598    3.699532    1.125473
C      1.731588   -2.816892   -0.265087
O      1.436149   -3.986458    0.098541
O      3.030623   -2.533476   -0.674469
H      4.812995   -0.706128    3.111366
H      6.475562    0.937431    2.260634
H      6.014115    2.222013    0.165152
H      2.680333   -1.091859    1.873426
H      1.812383    1.625014   -2.329449
H      4.138101    2.608177   -1.793210
H     -1.057831   -2.995543   -0.136042
H     -0.607611    1.192222   -0.771278
H     -3.325750   -2.785603   -1.205340
H     -5.750703   -1.922336   -1.099036
H     -2.277672    1.859708    0.616477
H     -6.509094    2.704895    0.519366
H     -6.959142    0.416614   -0.372668
H      3.747155   -3.249321   -0.665580
