49

C     -4.130310    2.000354   -1.079308
C     -3.552713    0.696551   -0.527938
C     -2.417863    0.976821    0.493668
C     -1.417847   -0.208563    0.565447
C     -2.129383   -1.523810    0.201984
C     -2.788895   -1.414126   -1.203574
O     -3.055865   -0.075612   -1.605020
O     -3.977163   -2.161064   -1.250704
O     -1.218546   -2.593288    0.215213
O     -0.359917    0.001338   -0.359115
C      0.770792    0.582119    0.267959
C      1.691031    1.210099   -0.821683
C      3.186706    1.055353   -0.465408
C      3.532389   -0.429315   -0.158849
C      2.273491   -1.220410    0.291541
O      1.435835   -0.389258    1.071747
C      2.661928   -2.446122    1.118177
N      4.117028   -1.063238   -1.346360
C      5.529542   -1.151947   -1.563228
O      6.347119   -0.753988   -0.691562
O      3.546602    1.890166    0.610557
O      1.353804    2.551778   -1.077030
N     -2.997930    1.222237    1.819048
C     -3.030016    2.513728    2.436902
O     -2.515670    3.517170    1.875526
H     -4.957009    1.774647   -1.785841
H     -3.348493    2.574844   -1.620838
H     -4.534216    2.623202   -0.253164
H     -4.394054    0.159174   -0.027969
H     -1.845577    1.872794    0.164138
H     -1.047406   -0.320397    1.614505
H     -2.927974   -1.712410    0.958789
H     -2.077653   -1.826028   -1.956455
H     -3.714417   -3.118222   -1.222660
H     -1.004495   -2.776489    1.167324
H      0.456369    1.406259    0.950157
H      1.532950    0.651108   -1.771369
H      3.779985    1.393719   -1.343697
H      4.275624   -0.446481    0.670408
H      1.715144   -1.599933   -0.597517
H      3.326771   -3.113027    0.528888
H      1.749229   -3.014509    1.396730
H      3.185450   -2.138813    2.048661
H      3.491672   -1.320515   -2.143213
H      5.902723   -1.565194   -2.490755
H      3.066712    1.575932    1.419865
H      1.492287    3.067086   -0.240442
H     -3.473579    0.434471    2.314408
H     -3.504188    2.631812    3.402059
