38

C      2.776831   -1.913605   -1.408579
C      3.721348   -1.183255   -0.443034
C      3.161708   -1.128504    0.991457
C      1.922154   -0.292773    1.069512
O      2.016898    0.961067    1.169747
O      0.670415   -0.914564    0.991481
C     -0.571154   -0.203379    0.947678
C     -1.690679   -1.153323    1.412870
C     -1.290724   -1.918079    2.639083
O     -1.400610   -1.392476    3.778049
O     -0.750762   -3.192273    2.518891
C     -0.773749    0.328628   -0.507021
N     -1.905257    1.285177   -0.765032
C     -3.173965    0.562774   -1.032667
C     -2.102352    2.248137    0.344280
C     -1.577388    2.061838   -1.988979
O      4.985844   -1.796830   -0.445993
H      2.550619   -2.935422   -1.036500
H      1.826272   -1.351314   -1.522854
H      3.251592   -1.994564   -2.408996
H      3.854331   -0.142810   -0.812774
H      3.929914   -0.695578    1.668650
H      2.937058   -2.155940    1.352313
H     -0.510512    0.637294    1.671812
H     -1.945967   -1.873833    0.605787
H     -2.595981   -0.573763    1.677888
H     -0.839695   -0.544520   -1.195509
H      0.188465    0.820569   -0.776709
H     -3.047146   -0.188523   -1.843653
H     -3.976414    1.267048   -1.348288
H     -3.559628    0.042582   -0.139571
H     -2.839910    3.034858    0.066558
H     -1.145368    2.752981    0.605263
H     -2.501945    1.749255    1.251899
H     -2.403451    2.754267   -2.268763
H     -0.665124    2.682686   -1.839906
H     -1.393305    1.384905   -2.854085
H      4.867636   -2.729255   -0.124306
