16

C     -1.706362   -0.809672    0.267344
C     -0.983349    0.493770   -0.081204
C     -1.524117    1.622978    0.746537
O     -2.664191    2.024451    0.574028
O      0.416125    0.363486    0.170557
C      1.287438   -0.352937   -0.657913
O      0.878667   -0.870826   -1.732591
C      2.729247   -0.453775   -0.292836
H     -1.322842   -1.640847   -0.360245
H     -1.544604   -1.066882    1.336226
H     -2.796620   -0.709252    0.078362
H     -1.148134    0.738558   -1.154157
H     -0.901837    2.095808    1.499994
H      3.129481   -1.446203   -0.589559
H      2.851794   -0.331464    0.803732
H      3.299305    0.342806   -0.814376
