21

C     -0.261952    0.332855    0.091844
C      0.440372   -1.024826    0.226680
C      1.759513   -0.867458    0.923240
O      1.828481   -1.038581    2.170732
C      2.956127   -0.472579    0.165130
N      4.058826   -0.322648    0.741430
N      5.141341   -0.175288    1.306540
C     -1.683588    0.206175   -0.498270
C     -2.376292    1.541471   -0.449626
O     -2.114723    2.422118   -1.311881
O     -3.272591    1.838033    0.573770
N     -1.668518   -0.287073   -1.879314
H     -0.337254    0.793558    1.102722
H      0.353296    1.008510   -0.543320
H     -0.200159   -1.724193    0.807410
H      0.611806   -1.469899   -0.776588
H      2.887786   -0.302984   -0.901636
H     -2.267582   -0.507564    0.124962
H     -3.485390    1.164921    1.300156
H     -0.915825    0.195632   -2.422890
H     -1.453674   -1.310180   -1.875618
