40

C     -2.811002    1.526652   -1.146197
C     -3.477540    0.351497   -0.406171
C     -4.854491    0.791348    0.123006
C     -2.552250   -0.262275    0.696114
C     -2.077237    0.737503    1.706999
O     -2.800512    1.363697    2.526202
N     -0.670791    0.855843    1.663321
C     -0.284663   -0.074197    0.661755
N     -1.282163   -0.683355    0.095699
C      1.115733   -0.232622    0.219936
N      1.931236    0.851767    0.333491
C      3.210546    0.857375   -0.120264
C      4.002388    2.002574    0.023816
C      5.315975    2.009076   -0.455893
C      5.841220    0.873524   -1.081057
C      5.055781   -0.274433   -1.229051
C      3.736438   -0.287342   -0.750370
C      2.930118   -1.423213   -0.871597
C      1.618013   -1.423694   -0.368298
C      0.849987   -2.688419   -0.405683
O      0.982481   -3.479134   -1.378583
O      0.022919   -3.043306    0.656458
C     -3.187015   -1.474661    1.397713
H     -3.469527    1.886101   -1.965611
H     -1.851168    1.209880   -1.605277
H     -2.617877    2.373095   -0.453415
H     -3.661852   -0.441642   -1.165096
H     -5.412236   -0.069674    0.544100
H     -4.755428    1.580057    0.896416
H     -5.468390    1.198448   -0.708752
H     -0.059315    1.460788    2.255134
H      3.602463    2.886809    0.504618
H      5.927345    2.895150   -0.343841
H      6.858491    0.882921   -1.450592
H      5.477158   -1.147143   -1.713479
H      3.335904   -2.320377   -1.326135
H     -0.496415   -3.912898    0.644039
H     -2.440345   -1.979074    2.048931
H     -3.545225   -2.210586    0.646700
H     -4.038757   -1.166061    2.039315
