11

C     -1.234508   -0.009797   -0.380816
C      0.186429   -0.377470    0.037718
C      1.082601    0.822932   -0.062390
O      1.046034    1.721224    0.819980
O      1.928257    0.968146   -1.154847
O      0.171940   -0.862908    1.354384
H     -1.242611    0.365470   -1.426784
H     -1.648571    0.773668    0.290016
H     -1.886366   -0.907359   -0.324253
H      0.556436   -1.171234   -0.651922
H      1.040359   -1.322670    1.498915
