28

C      2.228864    1.012601   -1.048677
N      0.938279    0.345440   -0.800081
C      1.101334   -1.042053   -0.358713
C      1.429845   -0.981957    1.142089
C      0.832646    0.346905    1.600742
C      0.208121    0.940047    0.325122
C     -1.279558    0.510332    0.183655
C     -1.415975   -1.051904    0.153330
C     -0.252772   -1.748998   -0.605210
O     -2.643803   -1.449413   -0.401858
C     -1.890250    1.168148   -1.034418
O     -1.664182    0.712136   -2.187004
O     -2.669523    2.314186   -0.901392
H      2.755160    0.509671   -1.887552
H      2.053167    2.066773   -1.351220
H      2.888470    1.001973   -0.154547
H      1.900823   -1.568947   -0.927234
H      1.004569   -1.841310    1.705276
H      2.531980   -0.976186    1.288983
H      0.088037    0.203465    2.413970
H      1.636765    1.016897    1.976089
H      0.280674    2.052169    0.329927
H     -1.835424    0.877229    1.074867
H     -1.377311   -1.416602    1.206350
H     -0.186375   -2.813741   -0.292004
H     -0.462691   -1.737192   -1.697216
H     -3.349549   -1.176230    0.241054
H     -2.851323    2.726561    0.005673
