24

C     -2.302104    1.420438   -1.579382
C     -3.189108    1.223278   -0.519675
C     -2.864623    0.334691    0.507964
C     -1.649547   -0.366118    0.480819
C     -0.755172   -0.177837   -0.593781
C     -1.089568    0.727249   -1.616117
C      0.574476   -0.893201   -0.640961
C      1.703821   -0.018036   -0.068345
C      3.039558   -0.685775   -0.263377
O      3.285262   -1.793997    0.285493
O      4.006776   -0.077221   -1.057222
N      1.468856    0.268758    1.349341
O     -1.331264   -1.244557    1.516439
H     -2.552944    2.113280   -2.372200
H     -4.127494    1.761999   -0.492712
H     -3.557312    0.192706    1.327731
H     -0.408725    0.896704   -2.441298
H      0.808826   -1.149519   -1.698243
H      0.519272   -1.856928   -0.089032
H      1.714688    0.946152   -0.624564
H      4.910170   -0.512488   -1.200767
H      1.526604   -0.618548    1.901170
H      2.227386    0.901993    1.693335
H     -1.957836   -1.393022    2.298813
