45

C      3.753426   -0.898059   -1.956620
C      3.536178    0.076526   -0.791781
C      4.555732   -0.181119    0.332943
O      4.248598   -1.387518    1.005957
C      3.075353   -1.223809    1.783392
C      1.902366   -0.750734    0.957768
C      0.593589   -0.891113    1.448999
C     -0.477627   -0.382807    0.703011
C     -0.257732    0.278391   -0.487478
C      1.041821    0.457310   -0.978672
C      2.130855   -0.061045   -0.254931
C     -1.523545    0.800555   -1.096395
C     -2.625164    0.094335   -0.227333
C     -1.925845   -0.404868    1.087628
C     -2.140201    0.524923    2.302415
C     -2.377913   -1.836281    1.444138
C     -3.926240    0.894857   -0.025002
C     -1.634855    0.380271   -2.576769
C     -1.536136    2.341680   -0.992010
H      4.782355   -0.789438   -2.360780
H      3.038536   -0.680922   -2.778682
H      3.606504   -1.948230   -1.623692
H      3.685890    1.113109   -1.167196
H      5.577861   -0.260703   -0.094993
H      4.578968    0.681909    1.038750
H      3.259218   -0.511404    2.618279
H      2.825638   -2.206061    2.237640
H      0.416165   -1.376865    2.400073
H      1.206809    0.992692   -1.904961
H     -2.945181   -0.814983   -0.788069
H     -1.542220    0.174159    3.170962
H     -1.827003    1.563974    2.073429
H     -3.206804    0.530964    2.611551
H     -1.889352   -2.187579    2.377905
H     -3.477875   -1.862257    1.597746
H     -2.118653   -2.546769    0.629345
H     -3.751124    1.839930    0.528603
H     -4.659608    0.283361    0.541938
H     -4.373920    1.140173   -1.011200
H     -1.502622   -0.718089   -2.686456
H     -0.861242    0.885081   -3.193785
H     -2.633050    0.657030   -2.978261
H     -0.676253    2.776042   -1.546039
H     -2.464706    2.759750   -1.434971
H     -1.460994    2.673633    0.063602
