32

C     -2.774920   -0.560098   -1.365118
C     -2.970238    0.702764   -0.485481
C     -2.745003    0.373343    0.997870
C     -1.340595   -0.247039    1.180678
C     -0.960677   -1.181564   -0.006470
O     -2.121545   -1.625896   -0.688845
O     -0.067361   -0.531365   -0.921077
C      1.283667   -0.235339   -0.675943
C      1.939899   -0.598667    0.515083
C      3.287094   -0.276899    0.705078
C      4.005265    0.411341   -0.289205
C      3.345656    0.769967   -1.476863
C      1.998698    0.447871   -1.664921
N      5.392347    0.744371   -0.097036
O      5.983387    0.428152    0.956412
O      6.091412    1.417968   -1.072481
O     -1.267319   -0.935575    2.404540
O     -2.861742    1.545204    1.762418
O     -4.238021    1.274880   -0.693974
H     -2.219196   -0.298747   -2.292688
H     -3.764616   -0.939034   -1.697520
H     -2.208389    1.455534   -0.788498
H     -3.525313   -0.360051    1.312844
H     -0.603649    0.584368    1.225959
H     -0.454565   -2.091552    0.382335
H      1.421810   -1.126598    1.302763
H      3.767137   -0.566779    1.631005
H      3.869948    1.299875   -2.261458
H      1.505872    0.732506   -2.586058
H     -1.888702   -1.708522    2.350522
H     -2.962375    1.259579    2.707905
H     -4.917965    0.626656   -0.371776
