20

C      1.838484   -1.912701   -0.191943
C      0.447146   -2.175717   -0.076592
C     -0.457352   -1.100466    0.020213
C      0.073414    0.176640   -0.003235
C      1.396631    0.454203   -0.112490
C      2.326016   -0.582695   -0.210712
C      1.522185    1.916414   -0.097759
C      0.285270    2.432603    0.017916
C     -0.662042    1.313328    0.080043
C     -2.051177    1.243991    0.198597
C     -2.649867   -0.039623    0.227778
C     -1.856129   -1.214511    0.138812
H      2.534415   -2.738010   -0.266355
H      0.089841   -3.197696   -0.063674
H      3.384617   -0.376679   -0.298342
H      2.438678    2.486973   -0.166744
H      0.043864    3.486378    0.057200
H     -2.650927    2.142055    0.265965
H     -3.724683   -0.125971    0.318873
H     -2.328382   -2.188517    0.162449
