45

C     -2.265437   -0.558320    2.218222
C     -2.132902   -0.964641    0.740649
C     -0.998306   -0.174058    0.017160
C     -1.306362   -0.134144   -1.491198
C     -2.696092    0.508973   -1.766761
C     -3.620461    0.356721   -0.527679
O     -3.402010   -0.898229    0.091597
O     -4.968222    0.462584   -0.900970
N     -3.296103   -0.082916   -2.972047
O     -0.294738    0.537569   -2.200162
O      0.241480   -0.838725    0.217783
C      1.135947   -0.066667    1.001109
C      2.276790   -0.986672    1.528240
C      3.600746   -0.198655    1.617592
C      3.969016    0.422788    0.246999
C      2.689006    0.683245   -0.595234
O      1.613264    1.048854    0.250673
C      2.902414    1.748320   -1.632284
O      2.661363    2.956208   -1.367906
O      3.418684    1.409143   -2.876604
O      4.680588    1.615417    0.476247
O      4.645007   -1.006943    2.100943
O      1.935539   -1.560793    2.766174
O     -3.307478   -1.268119    2.831769
H     -2.485642    0.526837    2.297038
H     -1.310277   -0.749567    2.756870
H     -1.839881   -2.037979    0.729082
H     -0.999661    0.885154    0.377266
H     -1.318643   -1.188360   -1.849399
H     -2.565572    1.601230   -1.943471
H     -3.401308    1.187568    0.185709
H     -5.495324    0.440766   -0.059915
H     -4.142071    0.461445   -3.257887
H     -2.613145   -0.046727   -3.763606
H     -3.565623   -1.078754   -2.796963
H     -0.241170    1.463078   -1.844623
H      0.613988    0.346575    1.893998
H      2.425325   -1.819202    0.804398
H      3.448887    0.626946    2.349100
H      4.605811   -0.298598   -0.320108
H      2.431877   -0.246788   -1.156198
H      5.327757    1.719880   -0.269704
H      4.732572   -1.784351    1.489342
H      1.883638   -0.829005    3.435335
H     -2.973272   -2.191086    2.981057
