39

C      4.735000    2.242889   -0.588265
C      5.064055    0.817276   -1.015729
O      4.261488   -0.119445   -0.300372
C      2.904908   -0.341897   -0.573567
O      2.354873    0.230529   -1.555885
C      2.105235   -1.316192    0.268642
C      2.851598   -1.651415    1.574383
C      1.906790   -2.609440   -0.545316
C      0.769461   -0.697149    0.629555
O      0.730958    0.478911    1.088514
O     -0.411163   -1.442514    0.507502
C     -1.706926   -0.909942    0.772577
C     -2.154592    0.002307   -0.371755
C     -3.536099    0.539562   -0.112189
C     -4.667066   -0.168124   -0.552864
C     -5.950525    0.317063   -0.282632
C     -6.113714    1.504510    0.436251
C     -4.993668    2.206840    0.889737
C     -3.708436    1.725243    0.621699
H      4.879144    2.352286    0.507445
H      3.683664    2.491046   -0.843496
H      5.406764    2.954441   -1.112875
H      6.131641    0.614135   -0.788156
H      4.916111    0.698001   -2.111078
H      2.245309   -2.337706    2.205009
H      3.053159   -0.727515    2.159328
H      3.822293   -2.148506    1.358682
H      2.888936   -3.040636   -0.838096
H      1.326117   -2.404959   -1.471281
H      1.359342   -3.371714    0.050608
H     -2.419751   -1.757260    0.863736
H     -1.703217   -0.357457    1.738099
H     -2.141074   -0.569889   -1.325177
H     -1.439495    0.845524   -0.484864
H     -4.554435   -1.094124   -1.103107
H     -6.818754   -0.229382   -0.627676
H     -7.107776    1.877944    0.645637
H     -5.121360    3.122837    1.451981
H     -2.848795    2.273925    0.986399
