43

C     -5.014618    1.717917    0.148961
C     -4.245890    1.037001    1.275622
C     -4.562015   -0.438124    1.310089
C     -3.674299   -1.430163    1.106181
C     -2.205960   -1.236106    0.810337
C     -1.952007   -0.774300   -0.647404
C     -0.453218   -0.535733   -1.035603
C     -0.154013   -1.615734   -2.042955
C     -1.222601   -2.311496   -2.374372
C     -2.352300   -1.839162   -1.615422
O     -3.529805   -2.255293   -1.779066
C      0.561578   -0.533457    0.131604
C      1.979220   -0.148738   -0.322218
C      2.925260   -0.023889    0.881967
C      4.385023    0.218133    0.466622
C      4.610119    1.621676   -0.110277
C      6.068349    1.851772   -0.369453
O      6.549236    1.614481   -1.508753
O      6.908942    2.284906    0.651770
H     -4.734161    1.279131   -0.832090
H     -6.108797    1.599580    0.301695
H     -4.773706    2.801785    0.135988
H     -4.556423    1.484289    2.243636
H     -3.164509    1.243705    1.151032
H     -5.590820   -0.717126    1.520380
H     -4.032582   -2.452645    1.186755
H     -1.790686   -0.515315    1.542944
H     -1.689312   -2.206001    0.980169
H     -2.533013    0.146593   -0.863727
H     -0.384745    0.443186   -1.561130
H      0.804272   -1.759234   -2.523713
H     -1.242963   -3.096468   -3.118897
H      0.235198    0.217386    0.882690
H      0.591288   -1.534746    0.614314
H      1.934468    0.820673   -0.862408
H      2.374849   -0.923790   -1.012147
H      2.888069   -0.969638    1.466132
H      2.583437    0.797317    1.549654
H      4.699303   -0.550473   -0.273586
H      5.022432    0.095189    1.370158
H      4.243101    2.389743    0.604239
H      4.051664    1.740151   -1.062908
H      6.552634    2.463020    1.583186
