23

C     -4.297578    0.253030    0.725698
C     -2.914029    0.050018    0.206930
C     -2.557084   -0.023449   -1.124057
C     -1.196760   -0.247199   -1.133484
C     -0.810723   -0.289888    0.196556
O     -1.859459   -0.122539    0.969333
C      0.539446   -0.549801    0.727097
C      1.680768   -0.141974    0.154349
C      3.035728   -0.450704    0.684083
C      3.960683    0.254228   -0.319749
N      3.083683    0.955447   -1.251093
C      1.842757    0.728079   -0.995276
H     -4.801210    1.060606    0.154032
H     -4.875294   -0.688467    0.618837
H     -4.261503    0.538861    1.797737
H     -3.210580    0.053477   -1.983010
H     -0.580861   -0.409657   -2.007426
H      0.600639   -1.088891    1.664539
H      3.159185   -0.025746    1.703911
H      3.213591   -1.547902    0.692037
H      4.623626    0.982714    0.194294
H      4.576004   -0.486751   -0.874005
H      1.048970    1.196507   -1.558090
