32

C      3.562457    0.689719   -0.758988
C      2.185900    0.775319   -0.955338
N      1.314396    0.242699   -0.044091
C      1.811815   -0.409228    1.060002
O      1.037517   -0.941210    1.900749
N      3.153256   -0.496423    1.257504
C      4.036108    0.040213    0.378575
N      5.438582   -0.071229    0.621422
C     -0.138896    0.338793   -0.298777
C     -0.680433   -1.013567   -0.833715
C     -2.128238   -1.268611   -0.351414
C     -2.917864    0.051442   -0.258207
C     -2.151936    1.097746    0.614693
O     -0.811825    0.714066    0.891675
C     -2.863904    1.307379    1.918820
O     -2.721387    0.484623    2.861914
O     -3.725928    2.385752    2.074294
O     -3.111261    0.557745   -1.554766
O     -2.090869   -1.891081    0.908688
O     -0.632606   -1.000273   -2.238385
H      4.245187    1.119132   -1.481394
H      1.821772    1.273245   -1.846236
H      5.786974   -0.561905    1.474717
H      6.133128    0.333542   -0.045425
H     -0.317839    1.126998   -1.072057
H     -0.038103   -1.845781   -0.459165
H     -2.636987   -1.949552   -1.074433
H     -3.918141   -0.181816    0.180529
H     -2.138807    2.083903    0.095929
H     -3.831656    1.238304   -1.491788
H     -2.989290   -2.284505    1.063739
H     -0.681123   -1.945438   -2.539072
