24

C      0.119214    0.669939   -0.930453
C     -1.272818    1.360924   -0.971195
C     -2.233755    0.889178    0.136793
C     -2.198765   -0.615089    0.232129
C     -1.016365   -1.242045    0.233714
C      0.253833   -0.425408    0.161375
C      1.472814   -1.337886   -0.079625
C      2.767181   -0.573352   -0.010704
O      3.323178   -0.204381   -1.079724
C      3.380312   -0.219266    1.279198
O      2.841582   -0.568149    2.362744
O      4.564584    0.506595    1.308389
O     -3.534748    1.329179   -0.149841
H      0.901248    1.442442   -0.763023
H      0.315764    0.220768   -1.929326
H     -1.741474    1.157698   -1.960016
H     -1.144661    2.462649   -0.893033
H     -1.891988    1.321241    1.106468
H     -3.119179   -1.191580    0.244413
H     -0.985219   -2.328021    0.251561
H      0.378733    0.078583    1.146014
H      1.493312   -2.144723    0.685566
H      1.384003   -1.832911   -1.072063
H     -4.056787    1.243617    0.690641
