25

C     -0.413792    0.561364    0.873092
C     -1.654388   -0.322135    1.035763
C     -2.714882    0.028123   -0.021617
C     -2.120158    0.142619   -1.403452
C     -0.817493    0.392348   -1.623025
C      0.225964    0.391381   -0.525001
C      1.086927   -0.886216   -0.642776
C      2.287059   -0.853419    0.265267
O      2.265103   -1.510127    1.340656
C      3.478696   -0.056367   -0.066676
O      3.530855    0.598601   -1.142238
O      4.557329   -0.026939    0.812077
O     -3.335732    1.245278    0.299308
H      0.315237    0.331055    1.677838
H     -0.710573    1.625088    1.007195
H     -1.373279   -1.392721    0.942124
H     -2.077165   -0.181595    2.054187
H     -3.476190   -0.785451   -0.045622
H     -2.796787    0.129772   -2.252809
H     -0.479383    0.509951   -2.648659
H      0.884894    1.269577   -0.702205
H      1.445540   -0.997585   -1.689843
H      0.475068   -1.786928   -0.421653
H      5.385949    0.515870    0.599868
H     -3.968800    1.058453    1.041174
