49

C      6.482255    0.403592    0.756332
C      6.570726   -0.898313    1.297527
C      5.457049   -1.757759    1.272974
C      4.278196   -1.280477    0.701677
C      4.192130   -0.015847    0.177742
C      5.279288    0.858478    0.186177
C      2.903839    0.132722   -0.297649
C      2.262176   -1.073244   -0.029577
N      3.109250   -1.933247    0.580323
C      2.293850    1.351421   -0.928517
C      2.013487    2.460816    0.100042
C      0.986582    2.068474    1.173816
C     -0.360295    1.795858    0.581061
O     -1.110393    2.756992    0.257396
O     -0.752487    0.473802    0.352686
C     -1.981987    0.123380   -0.276414
C     -2.013205   -1.404603   -0.503016
C     -3.441603   -1.979363   -0.333055
C     -4.526852   -0.968742   -0.775361
C     -4.279588    0.454238   -0.168022
O     -3.058258    0.520472    0.552368
C     -5.413832    0.860624    0.784963
O     -6.637150    0.940318    0.102938
O     -4.611608   -0.911208   -2.178856
O     -3.637371   -2.310319    1.019729
O     -1.519409   -1.689590   -1.787465
H      7.345768    1.055481    0.779763
H      7.501370   -1.237271    1.733610
H      5.515113   -2.756857    1.685090
H      5.205909    1.853387   -0.233061
H      1.233244   -1.307909   -0.266601
H      2.893619   -2.905547    0.894291
H      2.996869    1.743469   -1.694237
H      1.357581    1.074493   -1.458999
H      1.649761    3.363145   -0.438459
H      2.963203    2.744104    0.602922
H      1.337692    1.176253    1.734876
H      0.895170    2.900897    1.904439
H     -2.021944    0.653406   -1.258843
H     -1.350540   -1.889409    0.254278
H     -3.534304   -2.906575   -0.947242
H     -5.504201   -1.368246   -0.424944
H     -4.262527    1.218566   -0.980079
H     -5.504030    0.110526    1.599812
H     -5.177288    1.841234    1.258095
H     -6.614371    1.780864   -0.424947
H     -3.763327   -0.530423   -2.523290
H     -4.398578   -2.947018    1.056066
H     -1.248977   -2.645046   -1.788101
