20

C      2.184248   -0.580659   -0.705732
C      1.105855   -1.626485   -0.789878
C     -0.204548   -1.391271   -0.625986
C     -0.767939   -0.054588   -0.318762
C     -2.085717    0.230973   -0.307600
C     -2.551241    1.577786    0.078252
O     -3.784835    1.834659    0.071832
O     -1.647464    2.570194    0.451607
O     -3.063296   -0.705219   -0.662015
C      2.476646   -0.223497    0.718413
O      2.906636   -1.100967    1.514563
O      2.286825    1.081935    1.160776
H      1.902405    0.320450   -1.291403
H      3.113237   -0.987747   -1.158831
H      1.416138   -2.641182   -1.010371
H     -0.857067   -2.247348   -0.708194
H     -0.074637    0.736287   -0.070398
H     -1.968897    3.493569    0.716720
H     -2.868221   -1.625522   -1.029550
H      2.481873    1.338634    2.121063
