44

C      5.986373    2.533017    0.473635
C      4.943537    1.593045   -0.124595
C      4.315169    0.703853    0.958645
C      3.360929   -0.352982    0.379453
C      2.043217    0.257048   -0.129999
C      1.066458   -0.807358   -0.656996
C      0.326366   -1.540051    0.475523
C     -0.573756   -2.680811   -0.034834
C     -1.695102   -2.250567   -0.998684
C     -2.664001   -1.234234   -0.376415
C     -3.849090   -0.957484   -1.312718
C     -4.933425   -0.070204   -0.671321
C     -4.582307    1.435177   -0.645206
C     -3.623633    1.769215    0.459438
O     -3.917447    1.516555    1.658093
O     -2.414189    2.387447    0.166437
O     -5.750761    2.188873   -0.452454
H      6.416306    3.169988   -0.327914
H      5.519612    3.190338    1.237980
H      6.808049    1.950728    0.942515
H      5.433145    0.959597   -0.895945
H      4.160935    2.208134   -0.616258
H      5.128233    0.170791    1.499077
H      3.775579    1.333298    1.700080
H      3.142270   -1.082646    1.186468
H      3.866330   -0.905096   -0.443023
H      2.267769    0.949574   -0.968416
H      1.557400    0.850288    0.675628
H      1.608265   -1.537274   -1.297643
H      0.320109   -0.286436   -1.293549
H      1.065239   -1.992466    1.168715
H     -0.270674   -0.816970    1.070533
H     -1.032276   -3.186467    0.842919
H      0.061219   -3.435964   -0.547497
H     -2.262422   -3.164644   -1.280283
H     -1.261029   -1.838681   -1.934384
H     -3.038877   -1.626800    0.594134
H     -2.117862   -0.288310   -0.197862
H     -4.322771   -1.928327   -1.578154
H     -3.486755   -0.496777   -2.257697
H     -5.854250   -0.194680   -1.282721
H     -5.184274   -0.436827    0.348376
H     -4.115446    1.724455   -1.615961
H     -6.222162    2.220636   -1.326029
