36

H      0.000000    0.000000    0.000000
C      5.747771   -0.174469    0.055928
C      4.289217    0.172997   -0.073365
C      3.321519   -0.808526    0.208415
C      1.961069   -0.513147    0.096532
N      1.023832   -1.460134    0.368039
C     -0.303275   -1.184189    0.262532
C     -0.714877    0.103160   -0.133661
C     -2.076852    0.399958   -0.246226
C     -3.052494   -0.582092    0.034079
C     -2.618572   -1.867196    0.429723
C     -1.256730   -2.163312    0.542477
N     -4.467501   -0.278391   -0.081388
C     -5.450248   -1.355166   -0.255376
C     -4.940023    1.110563   -0.025857
N      0.222893    1.049577   -0.405715
C      1.550225    0.773834   -0.300479
C      2.503240    1.754603   -0.582328
C      3.873804    1.468047   -0.472950
N      4.823597    2.501140   -0.770695
H      6.253631   -0.043299   -0.923669
H      6.225179    0.483249    0.812366
H      5.892801   -1.227761    0.377776
H      3.623355   -1.803212    0.514960
H     -2.363601    1.393645   -0.562957
H     -3.328290   -2.647812    0.665217
H     -0.946628   -3.154513    0.849846
H     -6.445212   -0.957374   -0.547214
H     -5.566334   -1.917302    0.694708
H     -5.117458   -2.044007   -1.060659
H     -4.483864    1.630471    0.843257
H     -4.669034    1.639167   -0.963558
H     -6.042667    1.162717    0.095848
H      2.178961    2.742497   -0.887227
H      4.499389    3.449836   -1.063732
H      5.853175    2.346443   -0.706908
