41

C      4.709653    1.204503   -0.018678
C      3.212122    1.029572   -0.034130
C      2.622667   -0.005512    0.619398
C      1.145580   -0.153133    0.598784
C      0.343103    0.707062   -0.001782
C     -1.093270    0.266609    0.092661
C     -0.982704   -1.032767    0.965789
N      0.441462   -1.262131    1.138403
C      0.814473   -2.638177    0.847004
C     -0.427609   -3.274824    0.244473
C     -1.514926   -2.296430    0.270097
N     -0.838314   -2.608061   -1.013899
C     -1.666847   -3.496387   -1.843017
O     -1.561224   -0.885344    2.241693
C     -1.996276    1.350702    0.714341
O     -2.171504    2.434515   -0.191268
C     -2.934024    3.563117    0.120000
O     -3.514110    3.661144    1.235288
N     -3.054874    4.613918   -0.834552
C      0.900530    1.816616   -0.792990
O      0.164533    2.563309   -1.490180
C      2.361987    1.998962   -0.784097
O      2.876690    2.961217   -1.415254
O      3.364150   -0.950303    1.335883
H      5.029994    2.099941   -0.589608
H      5.064726    1.327090    1.026335
H      5.197517    0.318450   -0.477008
H     -1.464239    0.025819   -0.928158
H      1.093985   -3.156280    1.787915
H      1.653176   -2.691795    0.119083
H     -0.678375   -4.352691    0.361172
H     -2.544457   -2.690914    0.424071
H     -1.006949   -4.070407   -2.526177
H     -2.348117   -2.878035   -2.463861
H     -2.285085   -4.222467   -1.265743
H     -2.543936   -0.986670    2.145573
H     -1.550599    1.723257    1.663475
H     -2.996585    0.917432    0.929138
H     -2.574845    4.540420   -1.758595
H     -3.620839    5.464287   -0.618110
H      4.373362   -0.935616    1.407331
