18

C      1.212817   -0.774365   -0.836545
C     -0.173420   -1.338353   -1.020294
C     -1.175204   -1.222091   -0.127941
C     -1.086918   -0.478020    1.179158
C     -1.869056    0.792496    1.093463
O     -1.289403    1.879602    0.834413
O     -3.248137    0.771380    1.259452
C      1.219120    0.725793   -0.960097
O      0.655935    1.265596   -1.950502
C      1.909925    1.578961    0.021042
O      2.520178    1.072738    0.999349
O      1.892284    2.960019   -0.129602
H      1.869924   -1.183747   -1.632960
H      1.631917   -1.117758    0.132517
H     -0.370120   -1.890675   -1.934910
H     -2.133812   -1.666553   -0.381184
H     -1.524198   -1.115113    1.976567
H     -0.041833   -0.259908    1.478074
