19

C     -2.371007    1.233314   -0.014383
C     -1.665461   -0.054391    0.316202
C     -2.392741   -1.161131    0.521731
O     -1.791461   -2.394547    0.749528
C     -0.180633   -0.102770    0.333051
C      0.529207    0.504020   -0.632136
C      2.004908    0.507329   -0.686917
O      2.586481    1.570636   -1.029595
C      2.814344   -0.701462   -0.426739
O      2.271921   -1.837941   -0.407063
O      4.191354   -0.608265   -0.238057
O      0.476092   -0.750932    1.380868
H     -2.615644    1.256533   -1.097049
H     -1.726888    2.104358    0.230657
H     -3.309482    1.330984    0.572749
H     -3.474661   -1.115478    0.494839
H      0.012058    1.079307   -1.390949
H      4.670627    0.284017   -0.246038
H     -0.029014   -1.143581    2.165984
