20

C     -2.064105   -0.994351    0.475846
C     -1.090015   -0.388596   -0.538220
C     -1.851867    0.357471   -1.595988
O     -2.596546   -0.238227   -2.358611
O     -0.226125    0.522887    0.121614
C      1.002900   -0.085477    0.480036
C      1.606624    0.684111    1.651745
C      1.956456   -0.058551   -0.685353
O      2.647278   -1.076801   -0.952470
O      2.107677    1.090199   -1.457884
H     -2.659375   -0.194481    0.966707
H     -1.504991   -1.549756    1.257607
H     -2.754600   -1.705157   -0.026666
H     -0.539995   -1.212641   -1.053642
H     -1.733255    1.431581   -1.700610
H      0.859644   -1.137279    0.825900
H      0.913828    0.648085    2.519262
H      2.574049    0.229066    1.955262
H      1.775374    1.747601    1.376810
H      1.577046    1.930315   -1.261346
