20

C     -2.067661   -0.037947   -0.375139
C     -1.036719   -0.196175    0.761229
C      0.359958    0.192334    0.334333
C      1.022830   -0.446414   -0.640242
C      2.375554   -0.059491   -1.091605
O      2.699642   -0.314600   -2.281698
C      3.376600    0.572382   -0.210756
O      3.227313    0.584333    1.039424
O      4.528219    1.121196   -0.761258
C     -1.044967   -1.596080    1.314282
O     -0.928257   -1.782999    2.554201
O     -1.129694   -2.693156    0.464315
C     -2.175084    1.387675   -0.824906
O     -2.899975    2.198939   -0.191015
O     -1.440227    1.830027   -1.917679
H     -1.799413   -0.676021   -1.244432
H     -3.066107   -0.371745   -0.016015
H     -1.340587    0.490093    1.584056
H      0.807837    1.044227    0.828762
H      0.530737   -1.246577   -1.178936
