44

C     -3.185924    2.279721   -0.863069
C     -3.334837    1.175235    0.190426
C     -4.013421   -0.122533   -0.352155
C     -3.558692   -1.312153    0.510515
C     -2.014112   -1.451686    0.505958
C     -1.332366   -0.078442    0.261268
O     -2.094610    0.954564    0.859531
O     -0.039574   -0.060480    0.845624
C      0.955407   -0.542467   -0.047006
C      2.105784   -1.158363    0.781376
C      3.101809   -0.071647    1.222755
C      3.616770    0.742126   -0.006479
O      2.868740    0.490404   -1.190870
C      1.472507    0.601341   -0.964923
O      1.143345    1.867227   -0.444020
C      5.091187    0.419446   -0.293542
O      5.552862    1.159789   -1.391511
O      2.480789    0.804855    2.130268
O      2.789773   -2.123529    0.020970
O     -1.587236   -1.989079    1.732313
O     -4.185376   -2.506932    0.112367
O     -3.671427   -0.357845   -1.697667
H     -2.794577    3.202414   -0.384529
H     -2.480884    1.976145   -1.664726
H     -4.173361    2.511254   -1.316058
H     -4.026206    1.582066    0.960977
H     -5.121571   -0.024788   -0.253939
H     -3.887268   -1.101322    1.553382
H     -1.699058   -2.128778   -0.322077
H     -1.269949    0.112414   -0.838633
H      0.555189   -1.363407   -0.689648
H      1.686875   -1.647116    1.693417
H      3.954692   -0.571755    1.741461
H      3.575912    1.831146    0.226566
H      0.963414    0.490119   -1.949323
H      1.372977    2.528640   -1.147659
H      5.195809   -0.661348   -0.528728
H      5.717241    0.637063    0.602382
H      5.697614    2.087415   -1.068503
H      2.400807    0.320915    2.993740
H      2.231876   -2.944997    0.026938
H     -1.819823   -2.954222    1.717506
H     -3.895307   -2.710827   -0.814574
H     -4.345800    0.109419   -2.256550
