45

C     -3.415823    2.268597    0.463614
C     -2.974301    0.947341   -0.174927
C     -3.923360   -0.218847    0.211234
C     -3.154186   -1.564607    0.271646
C     -2.006832   -1.583973   -0.756220
C     -1.071884   -0.351830   -0.566473
O     -1.656963    0.656665    0.250899
O      0.123774   -0.794039    0.049966
C      1.169078    0.158017   -0.090123
C      2.061598   -0.241682   -1.297807
C      3.553906    0.019331   -1.021668
C      3.962297   -0.746191    0.274210
O      2.941150   -0.861449    1.265012
C      2.000688    0.199955    1.216722
O      1.157851    0.144494    2.339353
C      5.279198   -0.247396    0.897063
O      5.118996    1.003198    1.511537
O      3.795199    1.399640   -0.887326
O      1.643443    0.386422   -2.484986
O     -2.534208   -1.575147   -2.059820
O     -2.615273   -1.753709    1.556288
O     -4.958101   -0.298933   -0.736291
O     -4.694364    2.620157    0.010937
H     -2.691851    3.065715    0.181431
H     -3.417016    2.172254    1.572990
H     -2.993546    1.102559   -1.281216
H     -4.365080   -0.022014    1.217569
H     -3.847381   -2.408829    0.043459
H     -1.416185   -2.520876   -0.615609
H     -0.845619    0.073945   -1.574422
H      0.783971    1.197440   -0.232132
H      1.956477   -1.338473   -1.458389
H      4.155723   -0.388660   -1.869744
H      4.171253   -1.787947   -0.056475
H      2.530435    1.175888    1.277627
H      0.893920   -0.803926    2.468669
H      6.052816   -0.159289    0.104594
H      5.650539   -0.995872    1.634958
H      4.765190    0.831427    2.423063
H      4.006012    1.750352   -1.791786
H      1.674439    1.367572   -2.340488
H     -2.891173   -2.485246   -2.234047
H     -3.363480   -2.038327    2.143806
H     -5.689585   -0.826773   -0.321143
H     -4.921740    3.473063    0.464447
