45

C     -2.563743   -2.140249   -1.757381
C     -2.197716   -0.995969   -0.804725
C     -3.478840   -0.262042   -0.314165
C     -3.192122    1.228771   -0.016234
C     -1.746435    1.409322    0.473230
C     -0.748602    0.841804   -0.578491
O     -1.336404   -0.094581   -1.477730
O      0.368785    0.260450    0.075621
C      1.536441    0.271679   -0.737078
C      2.586216    1.302109   -0.200422
O      3.545193    0.751286    0.701066
C      2.980791   -0.240505    1.542851
C      2.603172   -1.505183    0.729836
C      2.171651   -1.128655   -0.706406
O      1.270426   -2.087957   -1.192990
O      3.689497   -2.395141    0.674861
O      3.876141   -0.558675    2.577598
C      1.957963    2.574935    0.397114
O      2.957815    3.465878    0.812906
O     -1.576135    0.759591    1.709598
O     -3.380919    2.000413   -1.176398
O     -3.958900   -0.878716    0.854002
O     -1.408839   -2.838583   -2.129063
H     -3.057563   -1.727196   -2.666017
H     -3.267747   -2.838314   -1.251819
H     -1.667494   -1.450738    0.066166
H     -4.272418   -0.301611   -1.098647
H     -3.884074    1.595170    0.779296
H     -1.539939    2.498379    0.605790
H     -0.440585    1.720651   -1.191196
H      1.322046    0.507466   -1.808640
H      3.165326    1.633937   -1.090542
H      2.065204    0.159164    2.034788
H      1.751912   -1.995677    1.259527
H      3.080210   -1.112327   -1.356226
H      1.237818   -1.975114   -2.178951
H      3.325227   -3.274212    0.391108
H      4.780396   -0.638530    2.175178
H      1.333819    2.318312    1.278240
H      1.301588    3.069054   -0.353676
H      3.325450    3.885195   -0.008580
H     -2.012884    1.327677    2.396910
H     -4.360572    2.117381   -1.288792
H     -4.434461   -1.703122    0.572376
H     -1.706698   -3.555528   -2.747258
