45

C     -3.640719    1.961087    0.952687
C     -3.123990    0.518082    0.849762
C     -1.711867    0.456289    0.211971
C     -1.251194   -1.013458    0.059811
C     -2.356723   -1.852451   -0.608713
C     -3.717272   -1.620088    0.081399
O     -4.057232   -0.242317    0.097332
O     -3.734656   -2.151662    1.385591
O     -2.029332   -3.217708   -0.552648
O     -0.074893   -1.108224   -0.731070
C      1.087278   -0.691642   -0.030610
C      2.287166   -1.559985   -0.522895
C      3.248222   -0.731730   -1.398586
C      3.689912    0.554787   -0.665264
C      2.539024    1.118336    0.214616
O      1.287392    0.691468   -0.289061
C      2.563702    2.652370    0.242312
O      1.529512    3.143886    1.051891
O      4.807346    0.269920    0.137673
O      2.610616   -0.382263   -2.602270
O      2.998226   -2.075257    0.574622
O     -1.656689    1.138652   -1.019270
O     -2.820297    2.726725    1.795284
H     -3.726713    2.425809   -0.056877
H     -4.661881    1.942614    1.389669
H     -3.063694    0.132280    1.893802
H     -1.007365    0.960074    0.907988
H     -1.093792   -1.451292    1.074245
H     -2.461964   -1.543891   -1.675411
H     -4.494871   -2.135700   -0.528565
H     -3.872285   -3.131091    1.300044
H     -1.346423   -3.380869   -1.254673
H      0.982136   -0.840273    1.072222
H      1.915155   -2.414506   -1.137338
H      4.153083   -1.341852   -1.632543
H      3.986146    1.296338   -1.445623
H      2.670987    0.772331    1.268460
H      2.420168    3.046256   -0.786737
H      3.547922    3.017896    0.614474
H      1.812925    3.002245    1.992804
H      5.225801    1.140402    0.367136
H      2.594067   -1.198149   -3.168015
H      2.446780   -2.808676    0.954313
H     -2.371583    0.778858   -1.604579
H     -2.128131    3.146381    1.220640
