44

C     -3.969324    1.936776   -0.905574
C     -2.659468    1.611424   -0.176623
C     -2.885048    0.748278    1.098210
C     -3.237826   -0.713557    0.752126
C     -2.567210   -1.169392   -0.563942
C     -1.360700   -0.279907   -0.925851
O     -1.724565    1.083023   -1.117233
O     -0.358548   -0.390894    0.070789
C      0.908452    0.031238   -0.412889
C      1.722710   -1.217139   -0.851045
C      3.224749   -1.046628   -0.558431
C      3.411421   -0.753570    0.964140
O      2.299175   -0.108499    1.582244
C      1.651135    0.799257    0.711493
O      0.746255    1.567344    1.459788
C      4.711505   -0.002954    1.292282
O      5.815638   -0.727504    0.824011
O      3.755258   -0.000389   -1.337482
O      1.496352   -1.540423   -2.201097
O     -2.160545   -2.508428   -0.440541
O     -4.631978   -0.866387    0.652719
O     -3.877811    1.307491    1.922563
H     -3.756620    2.582052   -1.784223
H     -4.664740    2.486708   -0.237182
H     -4.466951    1.013765   -1.265448
H     -2.245990    2.583610    0.170059
H     -1.927697    0.735952    1.669991
H     -2.865821   -1.342462    1.596714
H     -3.308409   -1.087219   -1.393936
H     -0.982752   -0.664313   -1.901863
H      0.825876    0.750229   -1.265101
H      1.376758   -2.086209   -0.247315
H      3.751275   -2.002330   -0.796650
H      3.495234   -1.745687    1.460541
H      2.401583    1.495102    0.263989
H      0.439827    2.305089    0.869568
H      4.700460    1.010326    0.833730
H      4.789842    0.116130    2.396066
H      6.617267   -0.194378    1.063782
H      4.078695   -0.401413   -2.186692
H      1.744793   -0.752403   -2.751412
H     -2.005076   -2.849233   -1.359355
H     -4.817264   -1.840900    0.699912
H     -3.489915    2.128423    2.325167
