45

C     -2.756887    1.455406   -1.444329
C     -2.971513   -0.034286   -1.098892
C     -4.035432   -0.271142    0.006210
C     -3.461450   -0.034901    1.415372
C     -2.115900   -0.755506    1.567399
C     -1.175321   -0.379072    0.408530
O     -1.755401   -0.725293   -0.841478
O      0.027170   -1.109484    0.565833
C      1.079786   -0.552691   -0.206534
C      1.914690    0.411462    0.657896
C      3.172788    0.839327   -0.131594
O      3.944529   -0.297437   -0.481968
C      3.236416   -1.118140   -1.395093
C      1.967162   -1.695264   -0.728245
O      1.234852   -2.453313   -1.657222
O      4.082315   -2.169869   -1.779733
C      4.043307    1.803303    0.687028
O      5.129642    2.249932   -0.078840
O      2.279999   -0.230418    1.855955
O     -1.537065   -0.403708    2.798743
O     -3.301850    1.339241    1.663633
O     -4.502888   -1.594750   -0.071110
O     -1.849624    1.583882   -2.505567
H     -3.726446    1.890584   -1.767750
H     -2.419551    2.052387   -0.570892
H     -3.387771   -0.481514   -2.028599
H     -4.894786    0.424283   -0.146013
H     -4.165482   -0.459319    2.170016
H     -2.302963   -1.855796    1.539003
H     -0.968008    0.713975    0.470065
H      0.706380    0.004836   -1.100741
H      1.295670    1.315232    0.871247
H      2.852412    1.393284   -1.046078
H      2.955003   -0.525842   -2.301707
H      2.270390   -2.334103    0.136240
H      1.621034   -3.367845   -1.654433
H      3.759323   -2.498971   -2.659162
H      3.437638    2.671480    1.035129
H      4.440772    1.283651    1.584596
H      4.774954    2.935127   -0.703754
H      2.287121    0.460730    2.568469
H     -0.886900   -1.117971    3.028519
H     -4.208706    1.710132    1.824376
H     -5.148844   -1.631016   -0.824496
H     -0.940568    1.559396   -2.108480
