41

C      2.522043    1.006374    1.418675
C      3.958439    0.547737    1.099325
C      3.952993   -0.683742    0.159902
C      2.715351   -0.654577   -0.746040
C      1.421469   -0.601090    0.118138
O      1.640298   -0.098085    1.434029
O      0.449575    0.185291   -0.549537
C     -0.858253   -0.083129   -0.068042
C     -1.659097    1.229013   -0.053875
C     -3.123299    0.946581    0.396086
O     -3.608554   -0.349365    0.049834
C     -3.060292   -0.817717   -1.168800
C     -1.552309   -1.122756   -0.990626
O     -1.349844   -2.425196   -0.498262
O     -3.737067   -1.979069   -1.568263
C     -4.087407    2.031550   -0.110965
O     -5.385779    1.795323    0.362684
O     -1.068295    2.147892    0.830620
O      2.707163   -1.790679   -1.571530
O      5.112444   -0.693222   -0.632435
O      4.621241    0.230161    2.296111
H      2.185858    1.772523    0.682122
H      2.495421    1.499482    2.413757
H      4.476502    1.400633    0.599795
H      3.905371   -1.618552    0.769302
H      2.781021    0.261467   -1.381138
H      1.069221   -1.653190    0.228273
H     -0.859224   -0.456286    0.986306
H     -1.664278    1.652443   -1.087792
H     -3.136700    0.993661    1.507762
H     -3.183694   -0.053030   -1.973304
H     -1.088697   -1.073049   -2.000816
H     -1.830923   -2.496071    0.367766
H     -4.674162   -1.708040   -1.752606
H     -3.738049    3.038048    0.215112
H     -4.112150    2.028765   -1.220843
H     -5.394542    2.069494    1.316886
H     -0.310421    2.569647    0.347639
H      2.021888   -1.627254   -2.271306
H      5.852661   -1.012414   -0.053142
H      5.594079    0.248433    2.099199
