46

C      2.744788   -2.290102    0.557165
C      2.831119   -0.966444    1.340901
C      4.005790   -0.043536    0.926204
C      3.691129    0.769023   -0.348300
C      2.299385    1.403513   -0.237515
C      1.257897    0.323243    0.131081
O      1.587295   -0.276903    1.373870
O     -0.020904    0.921141    0.271465
C     -0.721126    1.026718   -0.961783
C     -1.170957    2.489495   -1.135344
O     -1.945864    2.653519   -2.292943
C     -1.910382    0.019464   -0.997463
C     -2.985018    0.235797    0.117499
C     -4.194968   -0.743443    0.020760
C     -3.975912   -2.115290    0.690364
O     -3.936109   -2.004204    2.089198
O     -5.334531   -0.145966    0.587441
O     -2.439118    0.276784    1.413858
O     -1.436817   -1.304081   -1.028246
O      2.324015    2.409185    0.744704
O      3.746916   -0.044307   -1.493373
O      5.183793   -0.792506    0.766251
H      2.733508   -2.132741   -0.538675
H      1.822264   -2.836280    0.847094
H      3.616505   -2.933588    0.801499
H      3.040184   -1.267504    2.391081
H      4.153970    0.682267    1.760998
H      4.438238    1.592626   -0.445210
H      2.045457    1.850827   -1.227054
H      1.235516   -0.463962   -0.657415
H     -0.080933    0.805458   -1.850024
H     -1.759552    2.820901   -0.254999
H     -0.275434    3.149228   -1.185944
H     -1.320833    2.602940   -3.062629
H     -2.430065    0.175502   -1.968078
H     -3.408436    1.244683   -0.072240
H     -4.396276   -0.944101   -1.058421
H     -3.034548   -2.581514    0.342669
H     -4.797426   -2.804819    0.386899
H     -4.877117   -1.980494    2.404490
H     -5.689988    0.497288   -0.080605
H     -1.909662   -0.548001    1.554405
H     -0.913276   -1.466418   -0.203287
H      1.565881    3.020509    0.553847
H      4.704718   -0.138561   -1.736766
H      5.936881   -0.145345    0.762569
