41

C      3.041583    1.499088    0.043502
C      4.192301    0.549158   -0.331333
C      3.840400   -0.896273    0.074401
C      2.441433   -1.260947   -0.454599
C      1.428228   -0.173502   -0.051904
O      1.834457    1.085167   -0.567708
O      0.171070   -0.513023   -0.606689
C     -0.881115    0.193789    0.033066
C     -2.017141    0.416400   -0.974100
C     -3.192886    1.175376   -0.282943
O     -3.261459    0.975680    1.127447
C     -2.920790   -0.346888    1.498072
C     -1.407900   -0.590445    1.267154
O     -1.145879   -1.968976    1.161228
O     -3.226912   -0.520584    2.855858
C     -4.556503    0.862304   -0.927596
O     -4.595862    1.300212   -2.259038
O     -1.528441    1.164391   -2.059265
O      2.032817   -2.494396    0.078706
O      4.786299   -1.787699   -0.457074
O      5.396078    0.965012    0.263803
H      2.924515    1.573758    1.149119
H      3.287359    2.517324   -0.325235
H      4.324296    0.586702   -1.435421
H      3.824600   -0.978159    1.187934
H      2.469109   -1.316930   -1.569418
H      1.369128   -0.149741    1.065522
H     -0.556568    1.210327    0.369095
H     -2.361185   -0.586239   -1.326585
H     -3.010318    2.263888   -0.423094
H     -3.527317   -1.072895    0.904720
H     -0.854423   -0.214193    2.155708
H     -1.595299   -2.297979    0.339314
H     -3.187375   -1.496216    3.036965
H     -5.369046    1.351751   -0.343513
H     -4.749238   -0.230548   -0.909524
H     -4.696937    2.287467   -2.231370
H     -2.071261    0.916623   -2.852028
H      2.490324   -3.201037   -0.447476
H      5.589009   -1.735195    0.124743
H      5.270849    0.937446    1.248598
