44

C      3.290319   -1.626937   -1.627066
C      3.231158   -1.224742   -0.148618
C      4.317108   -0.176563    0.252011
C      3.819020    0.610147    1.479430
C      2.451832    1.289127    1.192724
C      1.663698    0.525577    0.095872
O      1.899567   -0.867835    0.216414
O      0.280833    0.785458    0.247211
C     -0.421165    0.408535   -0.921497
C     -1.931674    0.479127   -0.665078
C     -2.357876   -0.500501    0.458710
C     -3.864822   -0.320890    0.768517
C     -4.658192    0.163511   -0.471087
C     -3.933221   -0.254763   -1.772970
O     -2.608667    0.260268   -1.900208
O     -4.694106    0.122450   -2.890358
O     -4.791326    1.563151   -0.422312
O     -4.400944   -1.528341    1.250190
O     -2.081301   -1.821101    0.056883
O      1.708130    1.401825    2.382151
O      4.776930    1.539514    1.923864
O      4.579497    0.703308   -0.815914
H      2.581110   -2.460424   -1.816582
H      3.012426   -0.776026   -2.283377
H      4.314296   -1.968423   -1.889437
H      3.466335   -2.146643    0.427798
H      5.248925   -0.727583    0.527204
H      3.682930   -0.131590    2.298031
H      2.623597    2.319422    0.811028
H      2.012053    0.901908   -0.897979
H     -0.158364   -0.624216   -1.248252
H     -0.174197    1.113383   -1.747518
H     -2.151566    1.517475   -0.328784
H     -1.780704   -0.259144    1.383538
H     -3.951082    0.452620    1.569449
H     -5.670785   -0.307095   -0.458915
H     -3.873177   -1.364716   -1.790315
H     -4.547000    1.093965   -3.031840
H     -5.617425    1.796754   -0.920993
H     -5.239392   -1.300924    1.731366
H     -1.926918   -2.350804    0.882340
H      1.460238    0.483820    2.669347
H      4.882294    2.232583    1.221722
H      5.531613    0.975335   -0.745323
