41

C      3.576815    1.058780   -0.476918
C      2.184463    0.504940   -0.847947
C      1.465819   -0.101829    0.388832
C      2.501430   -0.656711    1.377932
C      3.526327    0.452273    1.777674
O      3.572729    1.534072    0.852969
O      3.197653    0.966668    3.041268
O      1.843220   -1.175447    2.505961
O      0.593324   -1.152302   -0.006426
C     -0.752087   -0.715335   -0.069432
C     -1.669201   -1.922144   -0.372756
C     -3.028706   -1.454857   -0.960366
C     -3.332285    0.006240   -0.565696
C     -2.157520    0.928062   -1.017843
O     -0.897476    0.264264   -1.085698
C     -2.053934    2.188192   -0.147643
O     -1.034322    3.016067   -0.634808
O     -4.555784    0.439267   -1.108489
O     -4.069153   -2.314738   -0.566567
O     -1.035426   -2.786696   -1.281552
O      2.289688   -0.420279   -1.902535
H      4.373101    0.291236   -0.618479
H      3.824988    1.901802   -1.156052
H      1.565456    1.354615   -1.210462
H      0.936950    0.727379    0.922382
H      3.050518   -1.483383    0.867227
H      4.537080   -0.016040    1.841047
H      3.954251    1.548164    3.315348
H      2.506692   -1.733452    2.990073
H     -1.048182   -0.310223    0.929063
H     -1.831951   -2.459841    0.591118
H     -2.963045   -1.494174   -2.071083
H     -3.425340    0.047852    0.542700
H     -2.378805    1.270999   -2.052417
H     -1.836865    1.910099    0.907401
H     -3.022251    2.736435   -0.177503
H     -1.005052    3.802240   -0.029882
H     -4.505370    0.332184   -2.094290
H     -4.169367   -2.234370    0.418096
H     -1.529081   -3.647555   -1.247381
H      2.800702   -1.202454   -1.566863
