44

C      2.690100   -1.642076   -1.511415
C      3.395146   -1.147482   -0.232587
C      4.213139    0.169629   -0.403809
C      3.528346    1.350156    0.317853
C      2.000403    1.247615    0.173810
C      1.491633   -0.099965    0.769680
O      2.508979   -1.092539    0.879568
O      0.418200   -0.621792    0.002565
C     -0.827778   -0.020380    0.323009
C     -1.722045   -1.049099    1.029326
C     -3.144071   -0.478457    1.191996
C     -3.670058    0.038155   -0.170560
O     -2.787493    1.009306   -0.714174
C     -1.503516    0.465009   -0.976838
O     -1.586889   -0.563820   -1.934982
C     -5.054932    0.681285   -0.005510
O     -5.522295    1.160931   -1.237503
O     -4.006146   -1.447594    1.737137
O     -1.177913   -1.348324    2.288849
O      1.365279    2.345983    0.781484
O      4.016184    2.590700   -0.134817
O      4.407051    0.459283   -1.768110
H      2.058701   -0.849451   -1.962235
H      2.054427   -2.522014   -1.276525
H      3.444856   -1.954538   -2.264338
H      4.134518   -1.943255    0.007351
H      5.206665    0.017049    0.084119
H      3.774606    1.274352    1.400954
H      1.752291    1.277971   -0.909816
H      1.167524    0.078596    1.821431
H     -0.737454    0.873169    0.986576
H     -1.758552   -1.972907    0.403080
H     -3.098164    0.377902    1.901555
H     -3.787792   -0.818515   -0.873742
H     -0.881450    1.292928   -1.389017
H     -0.690488   -0.645623   -2.353849
H     -5.780402   -0.051635    0.415628
H     -4.986963    1.535959    0.701301
H     -5.817481    0.368371   -1.757638
H     -4.057734   -2.201440    1.092740
H     -1.562082   -2.219815    2.568932
H      1.632503    2.359340    1.737775
H      3.638834    2.758997   -1.037600
H      5.262312    0.958034   -1.844585
