41

C      3.311161   -1.604392   -0.331499
C      4.324622   -0.689328    0.388972
C      3.792922    0.757044    0.486630
C      2.263803    0.752229    0.645643
C      1.598273   -0.024664   -0.532316
O      2.513670   -0.859460   -1.231123
O      0.521586   -0.820212   -0.058352
C     -0.695526   -0.090564    0.019122
C     -1.521033   -0.308153   -1.261937
C     -2.871339    0.437838   -1.155416
C     -3.427178    0.390611    0.299497
O     -2.896009   -0.722746    0.995074
C     -1.513867   -0.533306    1.273274
O     -0.994876   -1.717971    1.820614
C     -4.958215    0.283133    0.321183
O     -5.547537    1.437545   -0.216049
O     -2.678497    1.775201   -1.543913
O     -1.739144   -1.684618   -1.449835
O      1.781247    2.071953    0.673009
O      4.380448    1.413643    1.580142
O      5.547863   -0.681212   -0.301337
H      3.847782   -2.392185   -0.901793
H      2.678275   -2.140017    0.413414
H      4.479170   -1.085018    1.421221
H      4.034374    1.307903   -0.454334
H      2.009897    0.236067    1.603449
H      1.249553    0.716008   -1.290272
H     -0.523913    1.007577    0.128243
H     -0.945627    0.092909   -2.129472
H     -3.582092   -0.053893   -1.862291
H     -3.160844    1.333194    0.836395
H     -1.410654    0.250038    2.057918
H     -1.213233   -2.450524    1.186884
H     -5.292880   -0.634425   -0.217853
H     -5.294122    0.183885    1.375477
H     -5.755766    1.241150   -1.166452
H     -3.553845    2.117741   -1.860791
H     -1.985502   -1.809987   -2.403479
H      1.901188    2.406068    1.600167
H      5.315496    1.621719    1.319085
H      6.010371   -1.530783   -0.076901
