40

C      3.143479   -0.746685   -0.750483
C      3.965227   -0.047223    0.344554
C      3.212934    1.195256    0.841714
C      1.762134    0.822775    1.205840
C      1.110714    0.061381    0.037607
O      1.863153   -1.103050   -0.264704
O     -0.192387   -0.324874    0.433804
C     -1.004451   -0.628407   -0.690544
C     -2.025183   -1.702587   -0.272697
C     -3.037821   -1.138847    0.752233
C     -3.356764    0.351274    0.461536
O     -3.128813    0.654268   -0.903707
C     -1.735798    0.666541   -1.180623
C     -1.551769    0.837026   -2.659945
O     -0.650993    1.600291   -3.100976
O     -2.345060    0.115929   -3.547495
O     -4.691405    0.634398    0.790683
O     -2.510876   -1.269623    2.047810
O     -2.702651   -2.160125   -1.416814
O      1.018276    1.984834    1.469665
O      3.875181    1.714573    1.966255
O      5.215969    0.336568   -0.163822
H      3.065763   -0.108131   -1.660506
H      3.670165   -1.676496   -1.052595
H      4.101991   -0.751201    1.199701
H      3.201628    1.952387    0.020154
H      1.764765    0.154390    2.100597
H      1.066736    0.749146   -0.844649
H     -0.398546   -1.082663   -1.514518
H     -1.467709   -2.555498    0.183523
H     -3.969691   -1.748406    0.681352
H     -2.721628    1.002910    1.107467
H     -1.286771    1.561579   -0.690028
H     -2.219759    0.207411   -4.548475
H     -5.261742    0.191561    0.108822
H     -3.263852   -1.124153    2.678600
H     -3.099034   -3.040594   -1.185206
H      1.187974    2.227638    2.417109
H      3.632331    2.675254    2.026852
H      5.764284   -0.488828   -0.226520
