44

C      3.144934    0.410981    2.568961
C      2.647746    0.760439    1.165444
C      3.813149    0.793824    0.152838
C      3.249119    1.134141   -1.241653
C      2.065820    0.204967   -1.593856
C      1.048260    0.203194   -0.438317
O      1.679194   -0.196262    0.770069
O      0.025574   -0.723384   -0.750613
C     -1.117596   -0.528528    0.068339
C     -2.155667    0.340018   -0.676581
C     -3.508470    0.324429    0.081392
O     -3.964640   -1.006803    0.253202
C     -3.089639   -1.728869    1.101873
C     -1.711742   -1.903848    0.430511
O     -0.848135   -2.575449    1.311748
O     -3.656447   -2.990686    1.338644
C     -4.590973    1.121906   -0.660707
O     -4.241153    2.478074   -0.745858
O     -2.297511   -0.070649   -2.016714
O      1.434864    0.652795   -2.765729
O      4.256315    1.089573   -2.223039
O      4.455410   -0.457862    0.129429
H      3.575207   -0.612865    2.591133
H      3.917630    1.138632    2.897079
H      2.297371    0.451137    3.285746
H      2.190334    1.775828    1.235725
H      4.528892    1.594332    0.458325
H      2.867779    2.179392   -1.207521
H      2.433453   -0.839686   -1.733284
H      0.622135    1.233825   -0.347575
H     -0.874554   -0.021429    1.035812
H     -1.775203    1.384051   -0.686101
H     -3.374253    0.817065    1.073797
H     -2.973998   -1.195502    2.078485
H     -1.848366   -2.511324   -0.495068
H     -0.100430   -2.933700    0.765532
H     -3.233065   -3.351646    2.161176
H     -5.541576    1.046076   -0.090931
H     -4.780888    0.690403   -1.670847
H     -3.744665    2.594856   -1.597418
H     -2.726541   -0.964661   -2.022324
H      1.993711    0.347101   -3.527101
H      4.503698    0.139163   -2.366655
H      5.404917   -0.293047   -0.108803
