50

C      4.408033    1.444662   -2.668413
C      3.019374    1.794859   -2.128774
C      2.480904    0.661179   -1.228126
C      1.031283    0.974112   -0.783079
C      0.736826    2.494679   -0.802658
C      2.025670    3.319112   -0.558385
O      3.097732    3.047426   -1.459553
O      2.464186    3.119940    0.759968
O      0.167259    2.847763   -2.038067
O      0.822304    0.468989    0.528564
C     -0.409427   -0.221269    0.667775
C     -0.181801   -1.723736    0.393701
C     -1.132580   -2.696890    1.166453
C     -2.273687   -2.038004    2.011945
C     -2.161817   -0.492688    2.154667
O     -0.824581   -0.062133    2.005645
C     -2.656024   -0.009532    3.528074
O     -4.023298   -0.271084    3.697157
O     -3.515803   -2.368055    1.439200
O     -0.370218   -3.552139    1.985734
N     -0.127983   -2.005621   -1.051467
C     -1.220680   -2.044253   -1.990613
O     -0.971022   -2.321060   -3.192407
C     -2.652441   -1.827444   -1.606977
O      3.330297    0.507788   -0.116308
H      5.138751    1.353208   -1.835867
H      4.756737    2.244059   -3.356747
H      4.378972    0.487265   -3.230741
H      2.352795    1.901470   -3.013627
H      2.468269   -0.283378   -1.823895
H      0.367481    0.490499   -1.540240
H      0.003189    2.726501    0.005621
H      1.754944    4.392534   -0.673715
H      3.188846    3.779163    0.921505
H     -0.243071    3.742889   -1.925155
H     -1.173643    0.212624   -0.017975
H      0.843226   -1.926915    0.782488
H     -1.607679   -3.370315    0.424965
H     -2.231775   -2.494498    3.031282
H     -2.818420    0.004953    1.402037
H     -2.087763   -0.517177    4.336983
H     -2.464845    1.082736    3.630402
H     -4.511250    0.403644    3.157016
H     -4.202067   -2.287700    2.150724
H      0.041643   -2.994441    2.697096
H      0.816216   -2.233333   -1.440444
H     -3.100854   -2.784952   -1.279513
H     -3.217819   -1.462479   -2.488627
H     -2.765197   -1.077042   -0.806571
H      3.250810   -0.435917    0.178943
