41

C     -2.928777   -1.343295   -0.373919
C     -4.077252   -0.335182   -0.541245
C     -3.700554    0.995257    0.132220
C     -2.308691    1.450881   -0.342210
C     -1.295943    0.303066   -0.177758
O     -1.726689   -0.828952   -0.915327
O     -0.054706    0.735258   -0.710850
C      1.056851    0.311549    0.065850
C      1.422675   -1.153271   -0.253938
C      2.886462   -1.493883    0.165579
O      3.464572   -0.536321    1.042310
C      3.497118    0.792914    0.539839
C      2.248013    1.210397   -0.278454
O      1.936888    2.551874    0.007035
O      4.673832    0.991171   -0.199656
C      3.819079   -1.875276   -1.006827
O      3.846216   -0.892959   -2.008166
O      0.528058   -2.001664    0.421312
O     -1.881277    2.555444    0.412797
O     -4.647193    1.981124   -0.190996
O     -5.248114   -0.842380    0.043612
H     -2.799779   -1.627442    0.695847
H     -3.186608   -2.272269   -0.925029
H     -4.243522   -0.152165   -1.629451
H     -3.665325    0.850651    1.239186
H     -2.356869    1.722928   -1.424160
H     -1.234186    0.058242    0.912477
H      0.872828    0.432387    1.160505
H      1.298731   -1.301116   -1.352312
H      2.834626   -2.427551    0.768884
H      3.543066    1.445845    1.442259
H      2.470975    1.108298   -1.366496
H      1.413244    2.901338   -0.760876
H      4.786701    1.972319   -0.303183
H      4.850492   -2.010831   -0.617578
H      3.501245   -2.858588   -1.427985
H      3.224008   -1.183214   -2.724767
H      0.555263   -2.878378   -0.044389
H     -2.339381    3.353410    0.040089
H     -5.436102    1.824819    0.391102
H     -5.599976   -1.534434   -0.575330
