40

C      2.785386   -1.057052   -0.356025
C      1.543440   -0.169875   -0.556122
C      1.912678    1.338008   -0.450401
C      3.179934    1.567063    0.399752
C      4.350722    0.638716   -0.051307
O      3.929873   -0.428216   -0.891563
O      5.294940    1.408383   -0.746232
O      2.867812    1.322341    1.748293
O      2.059038    1.915316   -1.726087
O      0.589583   -0.512222    0.437452
C     -0.743456   -0.319734   -0.009106
C     -1.291535   -1.652581   -0.579835
C     -2.815355   -1.809052   -0.319976
C     -3.533522   -0.445612   -0.250746
C     -2.789744    0.550959    0.695585
O     -1.516230    0.076640    1.107491
C     -3.617365    0.829268    1.916467
O     -3.590432    0.039126    2.898238
O     -4.455375    1.939789    1.944446
O     -3.599272    0.092834   -1.547263
O     -3.062363   -2.561283    0.844535
O     -1.036113   -1.697543   -1.960971
H      2.933200   -1.307853    0.720971
H      2.630033   -2.022150   -0.883754
H      1.165911   -0.381509   -1.585046
H      1.076038    1.879753    0.043435
H      3.475553    2.638012    0.290431
H      4.850956    0.210986    0.850381
H      6.079675    0.820607   -0.902848
H      3.581135    1.750424    2.290525
H      2.768503    1.419636   -2.210505
H     -0.800129    0.480253   -0.793128
H     -0.759264   -2.498723   -0.082092
H     -3.262493   -2.384927   -1.160527
H     -4.575352   -0.634962    0.104905
H     -2.653028    1.529623    0.179792
H     -5.034324    2.133454    2.752824
H     -4.291795    0.804307   -1.527215
H     -2.571237   -2.142443    1.596853
H     -1.076026   -2.652107   -2.231628
