41

C      3.610273    1.794520   -1.004124
C      3.009510    0.773836   -0.030486
C      3.818102   -0.550043   -0.019378
C      2.943913   -1.745053    0.457417
C      1.754866   -1.280279    1.331657
C      0.958701   -0.117914    0.659703
O      1.671792    0.508144   -0.402071
O     -0.247411   -0.650984    0.142475
C     -1.184066    0.380370   -0.099604
C     -2.438193   -0.221961   -0.754506
C     -3.558194    0.796297   -0.994222
C     -4.397431    0.640039    0.246049
C     -4.160633   -0.820482    0.639102
O     -2.940410   -1.253117    0.072951
O     -5.188791   -1.656047    0.173463
O     -5.754261    0.962531    0.044314
O     -3.095745    2.115906   -1.126184
O      2.227587   -0.852765    2.585268
O      2.482494   -2.503401   -0.635597
O      4.971225   -0.416714    0.775580
O      3.485564    1.344336   -2.325707
H      3.070617    2.761417   -0.890338
H      4.683280    1.960713   -0.758150
H      3.042450    1.247175    0.980272
H      4.163706   -0.778594   -1.051618
H      3.575966   -2.428567    1.066330
H      1.070514   -2.148342    1.489010
H      0.736029    0.645430    1.445953
H     -0.753878    1.144081   -0.786680
H     -1.476891    0.866979    0.858581
H     -2.139237   -0.663048   -1.730878
H     -4.139248    0.495844   -1.898315
H     -3.995409    1.295008    1.051751
H     -4.079552   -0.900336    1.748406
H     -5.926484   -1.600483    0.835834
H     -6.084276    0.466883   -0.749777
H     -2.710015    2.186708   -2.038097
H      2.459468   -1.668193    3.102437
H      1.959209   -1.904334   -1.228411
H      4.678003   -0.271011    1.712564
H      3.896852    2.045453   -2.894971
