44

C      5.200626   -0.643732   -0.473609
C      3.785563   -0.774408    0.100036
C      3.334407    0.483481    0.917491
C      2.239295    1.292099    0.189960
C      1.056793    0.378391   -0.212358
C      1.542726   -1.051512   -0.610658
O      2.912241   -1.079287   -0.980228
O      1.248515   -2.043642    0.348020
O      0.145069    0.306038    0.877209
C     -1.200952    0.373036    0.443170
C     -2.107248    0.408598    1.689045
C     -3.595709    0.414153    1.285577
C     -3.901769   -0.665992    0.229817
C     -2.822438   -0.724721   -0.885362
O     -1.499886   -0.756473   -0.365547
C     -3.009577    0.341581   -1.983270
O     -1.965534    0.250258   -2.912980
O     -3.991882   -1.915902    0.866595
O     -3.952138    1.675613    0.778793
O     -1.825501   -0.650345    2.574032
O      2.755690    1.985784   -0.922846
O      4.406691    1.300074    1.327756
H      5.259056    0.210215   -1.181030
H      5.943488   -0.505594    0.340651
H      5.467733   -1.570862   -1.024284
H      3.823364   -1.648672    0.788638
H      2.866816    0.107201    1.853835
H      1.860347    2.063098    0.896974
H      0.596069    0.849587   -1.116148
H      0.970802   -1.332578   -1.520714
H      1.540239   -1.721510    1.237994
H     -1.349625    1.326743   -0.112651
H     -1.893023    1.352058    2.237848
H     -4.216335    0.204453    2.189268
H     -4.892069   -0.429046   -0.227791
H     -2.967515   -1.695355   -1.409246
H     -3.043839    1.365941   -1.558107
H     -3.978942    0.161004   -2.500186
H     -2.139689    0.951023   -3.593769
H     -4.505728   -2.513952    0.262860
H     -4.035913    2.287965    1.556113
H     -1.802756   -1.495417    2.055957
H      3.009591    1.323637   -1.615109
H      4.732946    1.806972    0.540480
