45

C     -4.779974    1.338016   -0.398791
C     -3.409063    1.187117    0.278118
C     -2.279449    0.865164   -0.746736
C     -1.090101    0.220481   -0.022341
C     -1.556177   -1.074439    0.700770
C     -3.063465   -1.040745    1.067627
O     -3.496545    0.276287    1.374856
O     -3.855590   -1.604880    0.052387
O     -1.244707   -2.235809   -0.031981
O     -0.064229   -0.049046   -0.966046
C      1.209103   -0.190761   -0.353818
C      2.063638    1.031440   -0.722584
C      3.464341    0.900855   -0.101750
C      4.086953   -0.462964   -0.464189
C      3.084316   -1.645467   -0.332759
O      1.795596   -1.372505   -0.868938
C      3.027987   -2.320943    1.055892
O      2.770696   -1.407306    2.083135
O      4.548925   -0.417554   -1.792050
O      3.408321    1.048377    1.294598
O      1.436434    2.204365   -0.271755
O     -1.880679    2.022427   -1.441621
O     -4.771531    2.442760   -1.260622
H     -5.555793    1.489549    0.384866
H     -5.034569    0.420120   -0.971848
H     -3.172244    2.174251    0.732993
H     -2.657521    0.140351   -1.501340
H     -0.747949    0.959480    0.742964
H     -0.986061   -1.132204    1.654254
H     -3.187807   -1.659847    1.985521
H     -4.767949   -1.704671    0.430765
H     -1.626260   -2.131949   -0.942518
H      1.136828   -0.265465    0.755008
H      2.159135    1.065237   -1.834008
H      4.115504    1.703524   -0.523629
H      4.953851   -0.657517    0.211425
H      3.498042   -2.447948   -0.983852
H      4.003156   -2.821447    1.252496
H      2.236415   -3.103688    1.044202
H      2.734364   -1.936471    2.921859
H      5.411972    0.073837   -1.784009
H      3.370048    2.021955    1.485476
H      1.870344    2.960894   -0.746189
H     -1.479769    2.649984   -0.784822
H     -5.678537    2.487155   -1.661018
