28

C     -4.937823   -0.276729    0.665560
C     -3.543350    0.104522    0.177492
C     -2.545199    0.154793    1.340344
C     -1.182039    0.571363    0.868669
C     -0.417057   -0.241325    0.135129
C      0.923460    0.174474   -0.306966
C      1.690513   -0.640447   -1.038078
C      3.068051   -0.246755   -1.517099
C      4.128187   -0.384124   -0.409800
C      3.951856    0.606686    0.702059
O      4.339415    1.796187    0.559186
O      3.337811    0.221304    1.887197
O      3.068892    1.058575   -2.037742
H     -5.637780   -0.307182   -0.195904
H     -4.918335   -1.279529    1.143182
H     -5.308655    0.471690    1.397976
H     -3.212017   -0.643597   -0.575100
H     -3.593727    1.100274   -0.315155
H     -2.480321   -0.838854    1.835879
H     -2.898789    0.892100    2.093584
H     -0.811054    1.546621    1.162909
H     -0.785944   -1.224303   -0.136492
H      1.287252    1.159241   -0.037247
H      1.312371   -1.613736   -1.329832
H      3.358929   -0.958455   -2.324413
H      5.136185   -0.241198   -0.856459
H      4.098368   -1.414359    0.007398
H      2.570799    1.025032   -2.896277
