50

C      5.078956   -1.066901    0.259005
C      5.585721   -0.356741   -0.996709
C      4.746834    0.846964   -1.482278
C      4.893536    2.085733   -0.604999
C      3.552306    1.355776   -0.661457
C      2.443645    2.087704   -1.445539
C      2.044347    1.367524   -2.710307
C      1.409640    0.182510   -2.756975
C      0.994582   -0.621807   -1.554036
C     -0.173731    0.051955   -0.820550
C      0.023951    0.313657    0.671618
C     -0.852436   -0.842648    0.214377
C     -2.367539   -0.629340    0.343735
C     -2.894416   -1.199683    1.681111
C     -4.446623   -1.199296    1.805080
C     -5.095399    0.177911    1.517519
C     -6.578046    0.210545    1.894945
C     -5.045880   -2.281742    0.937123
O     -5.296082   -3.414510    1.427141
O     -5.293432   -2.056672   -0.413132
O     -2.310353   -0.540624    2.780057
H      4.035926   -1.424344    0.114401
H      5.720894   -1.948398    0.467984
H      5.127859   -0.391888    1.137116
H      5.609700   -1.098968   -1.821411
H      6.632271   -0.028996   -0.827809
H      4.792257    1.106371   -2.562792
H      5.457064    1.937807    0.341483
H      4.980358    3.025710   -1.188693
H      3.283743    0.853429    0.291079
H      1.556314    2.213414   -0.792060
H      2.763557    3.121091   -1.711706
H      2.280994    1.851390   -3.654971
H      1.194405   -0.238189   -3.737177
H      1.865632   -0.800856   -0.894622
H      0.654682   -1.614967   -1.916199
H     -0.849183    0.748160   -1.364388
H      0.994882   -0.008479    1.101477
H     -0.510764    1.209087    1.048710
H     -0.419249   -1.856910    0.355069
H     -2.631524    0.448447    0.254658
H     -2.847835   -1.164560   -0.503121
H     -2.562366   -2.261481    1.740324
H     -4.677474   -1.458657    2.863538
H     -4.583685    0.968680    2.106939
H     -4.998205    0.439340    0.441140
H     -6.714378   -0.074147    2.959841
H     -6.973483    1.236771    1.752546
H     -7.158198   -0.483182    1.251590
H     -2.443776    0.435814    2.661325
