47

C     -5.693902    1.470864    1.033996
C     -5.863301    0.647378   -0.248274
C     -4.634302   -0.218254   -0.627975
C     -4.163860   -1.101620    0.537107
C     -3.477531    0.586143   -1.198609
O     -3.463323    1.805842   -1.116699
C     -2.320484   -0.109271   -1.866982
C     -1.159740   -0.231978   -0.921275
C     -0.420570    0.834306   -0.571476
C      0.731962    0.741050    0.404444
C      0.226410    0.288767    1.783170
C      1.847138   -0.173574   -0.158192
C      3.187871   -0.069323    0.616216
C      4.387090   -0.627414   -0.204480
C      5.735439   -0.498749    0.543406
C      6.172105    0.952656    0.748804
C      4.164024   -2.064421   -0.609436
O      3.736095   -2.334496   -1.762744
O      4.396557   -3.098550    0.290435
O      3.107850   -0.687969    1.877802
H     -4.779115    2.095886    0.998783
H     -6.570109    2.141648    1.156945
H     -5.646715    0.805566    1.921311
H     -6.105317    1.332414   -1.090139
H     -6.743421   -0.019196   -0.115161
H     -4.977604   -0.901215   -1.436367
H     -3.655891   -0.492577    1.315292
H     -3.449609   -1.869822    0.172509
H     -5.027530   -1.630519    0.993542
H     -2.016565    0.442835   -2.782754
H     -2.629356   -1.128784   -2.182579
H     -0.929083   -1.211883   -0.513772
H     -0.657419    1.808361   -0.991364
H      1.142881    1.768810    0.516081
H     -0.679029    0.866677    2.068794
H      0.994790    0.478768    2.559950
H     -0.028023   -0.792541    1.779523
H      1.500226   -1.229696   -0.180200
H      2.033662    0.128933   -1.212994
H      3.378118    1.011319    0.784652
H      4.469479   -0.026776   -1.138893
H      6.527208   -1.005909   -0.051635
H      5.684327   -1.006557    1.531093
H      7.211225    0.972620    1.139878
H      5.520048    1.459597    1.489569
H      6.147214    1.508553   -0.212419
H      2.790080   -1.617902    1.743743
