46

C      2.992465    2.286275    1.811177
C      2.171920    1.392842    0.880491
C      3.053527    0.423420    0.051882
C      3.866783    1.174535   -1.018217
C      2.233484   -0.748806   -0.565083
C      1.126130   -0.268385   -1.525253
C      0.407558   -1.443365   -2.146085
C     -0.777718   -1.928084   -1.728619
C     -1.605977   -1.326355   -0.621113
C     -2.449241   -0.132828   -1.134652
C     -3.098746    0.709890   -0.000863
C     -3.944216   -0.132168    0.986681
C     -4.765755    0.742034    1.935719
C     -2.044785    1.519850    0.717620
O     -1.731688    2.661722    0.288816
O     -1.374521    1.000346    1.819489
O     -3.422096   -0.558036   -2.059509
O      1.634614   -1.501717    0.480593
C      2.363533   -2.681858    0.736388
H      3.626751    2.985501    1.228319
H      3.633716    1.670284    2.476713
H      2.306261    2.888689    2.443163
H      1.467119    0.811451    1.512574
H      1.567465    2.040122    0.209055
H      3.791051   -0.041775    0.743172
H      4.635894    1.814880   -0.538732
H      3.212303    1.820091   -1.640562
H      4.399057    0.457460   -1.678549
H      2.935678   -1.362026   -1.184859
H      0.421732    0.404686   -1.000527
H      1.574930    0.316138   -2.354675
H      0.922957   -1.976726   -2.939722
H     -1.165055   -2.818189   -2.216009
H     -0.950879   -1.025403    0.220717
H     -2.280247   -2.115849   -0.225761
H     -1.774587    0.550684   -1.694919
H     -3.788489    1.431080   -0.495581
H     -3.292250   -0.801315    1.588619
H     -4.656407   -0.772020    0.425654
H     -5.385250    0.095318    2.592262
H     -4.101649    1.357635    2.577940
H     -5.440699    1.409804    1.359275
H     -3.935699   -1.302103   -1.652617
H      1.911148   -3.195253    1.609281
H      3.424150   -2.457907    0.986181
H      2.305728   -3.374567   -0.131925
