23

C      3.491041    0.656180    0.749521
N      2.365984    0.019513    0.077429
C      1.212957    0.601803   -0.286112
C      0.393248   -0.384928   -0.790095
N      1.011325   -1.582610   -0.714857
C      2.216209   -1.294845   -0.177897
C     -1.018817   -0.200240   -1.261011
C     -2.034873   -0.534346   -0.153648
C     -1.905484    0.430793    0.993226
O     -1.451543    0.037367    2.101053
O     -2.265113    1.764973    0.825370
N     -3.394290   -0.470846   -0.691140
H      4.433372    0.120658    0.506720
H      3.329366    0.632478    1.847479
H      3.586982    1.711550    0.416641
H      0.978484    1.652592   -0.171047
H      2.967482   -2.043139    0.039682
H     -1.184576   -0.872643   -2.130385
H     -1.165479    0.844126   -1.614870
H     -1.841453   -1.569752    0.212434
H     -2.172259    2.427489    1.585952
H     -4.061463   -0.743188    0.067799
H     -3.491098   -1.202984   -1.432244
