35

C     -5.383846   -1.653381   -0.413339
C     -5.316665   -1.166633    0.894890
C     -4.161366   -0.522934    1.347737
C     -3.062314   -0.361337    0.489421
C     -1.897200    0.282949    0.932095
C     -0.806011    0.456445    0.067603
C     -0.874599   -0.056711   -1.239904
C     -2.030092   -0.700821   -1.689902
C     -3.130563   -0.854877   -0.835603
C     -4.296032   -1.500216   -1.277753
N      0.384012    1.097401    0.556999
C      1.259926    1.892871   -0.257211
O      0.879480    2.320307   -1.380768
C      2.643695    2.219837    0.223122
C      3.692330    1.271878   -0.379652
C      3.529396   -0.190612    0.082454
C      4.545776   -1.067628   -0.600236
O      4.169451   -1.991881   -1.368278
O      5.904520   -0.861363   -0.392036
N      3.658276   -0.290687    1.538347
H     -6.280934   -2.151337   -0.758008
H     -6.162017   -1.288759    1.559714
H     -4.127168   -0.152172    2.365278
H     -1.837727    0.660772    1.946426
H     -0.026266    0.015795   -1.907339
H     -2.059574   -1.086368   -2.702149
H     -4.365095   -1.885263   -2.288200
H      0.598728    1.021101    1.577054
H      2.685819    2.185211    1.332726
H      2.889430    3.261284   -0.077795
H      3.627503    1.319804   -1.489702
H      4.701734    1.639406   -0.090900
H      2.514582   -0.544099   -0.206162
H      4.631530   -0.032314    1.823186
H      3.501283   -1.285668    1.821336
