45

C     -5.143516    0.769753   -1.905502
C     -4.284700    0.120710   -0.812234
C     -4.790175   -1.303715   -0.535849
C     -4.305409    0.997621    0.461875
C     -3.305018    0.572853    1.554921
C     -1.827069    0.745434    1.142191
C     -1.146317   -0.601298    0.842232
C      0.265424   -0.433489    0.258905
C      1.263545    0.138979    1.280888
C      2.719493    0.051862    0.796694
C      3.020944    1.034558   -0.345739
C      4.491627    0.992306   -0.784876
C      4.808318   -0.265800   -1.552339
C      5.470490   -1.345820   -1.104351
C      6.032121   -1.561147    0.245880
O      6.752955   -2.575158    0.444255
O      5.769858   -0.703367    1.307372
H     -5.109572    0.161179   -2.834418
H     -4.756767    1.782721   -2.147639
H     -6.200369    0.859037   -1.573251
H     -3.247919    0.061861   -1.205521
H     -5.813379   -1.279930   -0.103257
H     -4.115847   -1.835796    0.164731
H     -4.816046   -1.890523   -1.478811
H     -5.329048    0.983643    0.897243
H     -4.089717    2.054382    0.188428
H     -3.515081   -0.460935    1.901857
H     -3.492793    1.226214    2.435325
H     -1.739284    1.422541    0.264340
H     -1.287259    1.231884    1.982971
H     -1.099402   -1.212476    1.770113
H     -1.751319   -1.167723    0.104844
H      0.618878   -1.434300   -0.072778
H      0.214035    0.220992   -0.637162
H      1.014815    1.197600    1.508951
H      1.183468   -0.439427    2.227215
H      2.945842   -0.989295    0.480386
H      3.377019    0.297984    1.657983
H      2.375688    0.817111   -1.223605
H      2.788475    2.066435   -0.002691
H      4.656748    1.843920   -1.479479
H      5.175000    1.179092    0.063878
H      4.445897   -0.300262   -2.573295
H      5.619508   -2.151468   -1.813892
H      6.155858   -0.878743    2.227354
