29

C     -1.760471   -0.861172   -1.086357
C     -3.243374   -1.075109   -1.405396
C     -4.073473   -0.937023   -0.163034
O     -5.166141   -1.556366   -0.067426
N     -3.657120   -0.060269    0.889334
C     -2.418875    0.654995    0.807838
O     -2.114029    1.474518    1.715688
C     -1.523156    0.494558   -0.396683
N     -0.110889    0.625541   -0.022347
C      0.919940    1.197069   -0.834109
O      0.708277    1.895977   -1.860417
C      2.232545    0.828386   -0.317097
C      3.511760    1.151528   -0.766488
C      4.610540    0.626199   -0.062972
C      4.409676   -0.206052    1.059910
C      3.108118   -0.520878    1.490046
C      2.036582    0.016394    0.778821
C      0.598500   -0.135754    0.964120
O      0.047151   -0.853147    1.840586
H     -1.407585   -1.688468   -0.431533
H     -1.175637   -0.901701   -2.030851
H     -3.579771   -0.323593   -2.151563
H     -3.381037   -2.088615   -1.840456
H     -4.266332    0.060062    1.729713
H     -1.785875    1.305607   -1.110867
H      3.656397    1.786196   -1.631040
H      5.616645    0.859539   -0.386217
H      5.262799   -0.606577    1.591833
H      2.944834   -1.161842    2.346596
