28

C     -4.063784    1.392342    0.167439
C     -2.857330    0.513265   -0.036422
C     -2.142409    0.602660   -1.180356
C     -0.920486   -0.231582   -1.472492
N      0.219060    0.206088   -0.666774
C      1.472941   -0.489483   -0.708805
N      1.648673   -1.574340   -1.523938
C      2.841531   -2.249346   -1.573576
N      3.896596   -1.851154   -0.800786
C      3.727218   -0.777973    0.007640
C      2.558901   -0.097933    0.071395
N      2.682841    0.904382    0.950812
C      3.959180    0.787491    1.396416
N      4.642647   -0.246556    0.834615
C     -2.498970   -0.468366    1.051923
H     -3.939738    1.980694    1.100733
H     -4.213858    2.102619   -0.673810
H     -4.971026    0.759052    0.258394
H     -2.448240    1.309461   -1.947164
H     -0.661721   -0.123529   -2.547590
H     -1.137042   -1.304158   -1.280607
H      0.123340    1.049389   -0.056873
H      2.948030   -3.103027   -2.228531
H      1.973825    1.614603    1.237386
H      4.393692    1.453165    2.130441
H     -3.209269   -0.390894    1.902285
H     -2.545220   -1.506100    0.660706
H     -1.479381   -0.260771    1.437376
