33

C      0.267695   -2.513347   -0.160090
C     -0.232613   -1.100767   -0.394109
C      0.623833   -0.072952   -0.888838
C      0.093566    1.206335   -1.115329
C     -1.240678    1.489962   -0.857191
C     -2.091254    0.507691   -0.333518
C     -1.583255   -0.782267   -0.066873
C     -2.506783   -1.827297    0.522680
O     -3.444634    0.781786   -0.067590
C     -4.079390    2.037192   -0.289805
C      2.111701   -0.259864   -1.159304
C      3.001389   -0.029898    0.082324
C      2.828550    1.363380    0.627123
O      1.968477    1.600829    1.518335
O      3.589524    2.404813    0.105631
N      2.732515   -1.028194    1.118349
H      0.496242   -2.653480    0.916725
H      1.159700   -2.775447   -0.753014
H     -0.500740   -3.254522   -0.462233
H      0.724132    2.001786   -1.494509
H     -1.599467    2.489560   -1.060229
H     -3.390915   -1.376741    1.018793
H     -1.983787   -2.417938    1.303344
H     -2.861114   -2.506230   -0.280842
H     -3.594537    2.824590    0.325068
H     -5.145250    1.961477    0.007690
H     -4.029608    2.305328   -1.366271
H      2.331656   -1.245937   -1.609307
H      2.434123    0.457713   -1.946713
H      4.062650   -0.134245   -0.239887
H      3.473544    3.352621    0.443736
H      3.017928   -1.963920    0.748149
H      3.366801   -0.842020    1.929554
