15

C     -1.884661    0.759846    0.062789
C     -2.010897   -0.647948    0.044396
C     -0.866052   -1.465838    0.000710
C      0.378425   -0.840116   -0.023279
C      0.499019    0.522908   -0.005387
C     -0.612548    1.361624    0.037694
C      1.843994    0.806892   -0.037384
C      2.463041   -0.438564   -0.073486
O      1.560476   -1.403748   -0.064037
H     -2.771531    1.379115    0.096370
H     -2.993897   -1.100156    0.064017
H     -0.949801   -2.544631   -0.013749
H     -0.503454    2.438436    0.051416
H      2.316913    1.780023   -0.035045
H      3.530974   -0.607843   -0.105026
