49

C      3.002896    3.012197   -0.086348
C      3.921655    1.801901    0.079478
C      3.160265    0.523520    0.463384
C      2.335327   -0.047055   -0.698276
N      1.708415   -1.325585   -0.288278
C      2.572667   -2.473554   -0.631191
C      2.070045   -3.749980    0.064363
C      0.541601   -3.764888    0.234235
C     -0.143854   -2.952715   -0.866341
C      0.342694   -1.478200   -0.862313
C     -0.625438   -0.634685   -0.072520
O     -0.556711   -0.618914    1.187352
N     -1.654956    0.100534   -0.746727
C     -2.562736    0.957277   -0.038502
C     -2.104954    2.161380    0.546869
C     -3.006009    2.969166    1.257738
C     -4.350834    2.612749    1.354687
C     -4.812558    1.443660    0.750637
C     -3.927070    0.605238    0.055912
C     -4.439153   -0.658176   -0.580636
C     -0.666323    2.588377    0.431295
H      2.338821    2.886466   -0.965996
H      2.387468    3.161106    0.826054
H      3.618257    3.922180   -0.247585
H      4.497219    1.638754   -0.857509
H      4.652020    2.029942    0.885862
H      3.905497   -0.233448    0.787733
H      2.493068    0.725137    1.330106
H      1.562500    0.705052   -0.966490
H      2.976967   -0.180955   -1.599282
H      3.621226   -2.291788   -0.309041
H      2.584204   -2.628272   -1.734665
H      2.387199   -4.631909   -0.533862
H      2.542222   -3.837784    1.067222
H      0.273064   -3.333342    1.223445
H      0.172857   -4.813135    0.211884
H      0.097892   -3.415826   -1.848781
H     -1.248545   -3.016877   -0.747183
H      0.338672   -1.128630   -1.921166
H     -1.844533   -0.101832   -1.753936
H     -2.670017    3.884774    1.728776
H     -5.039553    3.248340    1.896294
H     -5.862200    1.189738    0.832285
H     -3.819769   -1.522310   -0.259460
H     -4.390256   -0.564323   -1.685659
H     -5.491548   -0.864625   -0.291116
H     -0.285981    2.391739   -0.592794
H     -0.048991    2.033468    1.167293
H     -0.552732    3.676114    0.625464
