10

C     -1.109352    0.276676    0.065183
C     -0.707450   -1.058427    0.030951
N      0.613617   -1.366602   -0.046489
C      1.555797   -0.388021   -0.091415
N      1.182808    0.918567   -0.059065
C     -0.128268    1.266858    0.018154
H     -2.157767    0.538155    0.126786
H     -1.444542   -1.849500    0.065878
H      2.603262   -0.649263   -0.152962
H     -0.408104    2.311557    0.042978
