28

C     -2.166334    0.254002    0.654375
C     -2.595163   -1.179628    0.303306
O     -1.647475   -1.846420   -0.511179
C     -0.483274   -2.206727    0.214322
C      0.743088   -1.657132   -0.514071
O      1.806771   -1.482688    0.404814
C      2.626194   -0.386281    0.036915
C      2.287370    0.847667    0.883319
O      0.891808    1.084115    0.915674
C      0.511356    2.000431   -0.089953
C     -1.013490    2.125310   -0.120242
O     -1.609172    0.889560   -0.479654
H     -3.063800    0.814618    0.999789
H     -1.440954    0.213573    1.496962
H     -3.545912   -1.122980   -0.267997
H     -2.817447   -1.759880    1.227985
H     -0.473669   -1.852976    1.272069
H     -0.415546   -3.314895    0.251918
H      1.055010   -2.372474   -1.305676
H      0.442810   -0.710674   -1.017425
H      3.681467   -0.663988    0.243564
H      2.591855   -0.138051   -1.050393
H      2.617240    0.649695    1.925280
H      2.878156    1.726511    0.532239
H      0.861662    1.669723   -1.093947
H      0.937613    3.005363    0.128896
H     -1.378332    2.543011    0.849126
H     -1.281832    2.871213   -0.898081
