50

C      0.247234    1.096887    2.065053
N      0.379932    1.386511    0.620350
C     -0.322115    2.630688    0.251710
C     -1.838687    2.530128    0.477456
C     -2.410546    1.186806    0.090089
C     -3.804174    1.037383    0.088036
C     -4.397174   -0.196902   -0.224464
C     -3.586169   -1.292776   -0.540102
C     -2.186165   -1.150313   -0.532037
C     -1.581057    0.075121   -0.186365
C     -0.064964    0.273955   -0.258135
C      0.773760   -1.012771   -0.021253
C      2.262584   -0.745526   -0.008383
C      3.034338   -1.065307    1.119766
C      4.413431   -0.829656    1.132293
C      5.046396   -0.279900    0.002709
C      4.275382    0.020219   -1.136394
C      2.899075   -0.217440   -1.142309
O      6.430910   -0.050533    0.044714
C      7.190691    0.499770   -1.026489
O      5.139752   -1.151058    2.278942
O     -4.210826   -2.509255   -0.860882
C     -3.522696   -3.709301   -1.199028
O     -5.790203   -0.373824   -0.234899
C     -6.736836    0.647128    0.063938
H      0.426313    2.013957    2.666782
H     -0.755539    0.692802    2.319515
H      1.012511    0.363470    2.381641
H     -0.125962    2.864794   -0.818351
H      0.085420    3.486289    0.833567
H     -2.340339    3.332242   -0.106542
H     -2.059204    2.710981    1.551761
H     -4.420843    1.892130    0.333268
H     -1.577582   -1.997160   -0.800310
H      0.138955    0.570660   -1.311214
H      0.593579   -1.735347   -0.844448
H      0.449033   -1.502668    0.922648
H      2.567490   -1.499801    1.995163
H      4.730603    0.434694   -2.025354
H      2.331072    0.008798   -2.035602
H      6.822542    1.518292   -1.272037
H      7.123801   -0.157367   -1.919168
H      8.253542    0.571400   -0.717392
H      6.139609   -1.002894    2.344188
H     -2.913981   -3.555550   -2.115014
H     -4.265336   -4.508985   -1.397244
H     -2.873903   -4.028312   -0.356053
H     -7.760351    0.228083   -0.020530
H     -6.587851    1.014352    1.101325
H     -6.635452    1.485103   -0.657678
