32

C      3.260252    0.821160   -0.526784
C      1.895732    0.640600   -0.274314
N      1.195817   -0.352752   -0.938610
C      1.888566   -1.218996   -1.758313
O      1.298275   -2.181382   -2.323837
N      3.221216   -1.054179   -1.976887
C      3.910447   -0.046206   -1.391232
O      5.141343    0.096034   -1.620294
C     -0.277252   -0.523588   -0.820492
C     -0.651750   -1.424394    0.355935
C     -1.908871   -0.768928    0.916891
C     -2.155401    0.411037   -0.028669
O     -0.938869    0.710109   -0.670808
C     -2.677690    1.657005    0.698480
O     -3.959369    1.424269    1.218566
O     -3.015485   -1.635363    0.908753
O     -0.888290   -2.734371   -0.095645
C      1.287013    1.535873    0.732703
O      0.589738    1.066244    1.669362
O      1.546219    2.902624    0.688303
H      3.819566    1.607220   -0.031280
H      3.723529   -1.715564   -2.612861
H     -0.681451   -0.967781   -1.761177
H      0.158255   -1.422056    1.122785
H     -1.705589   -0.408387    1.953496
H     -2.899256    0.125963   -0.809180
H     -1.973654    1.974282    1.501513
H     -2.745245    2.493061   -0.029580
H     -3.836275    0.993846    2.104419
H     -2.929890   -2.211768    1.712457
H     -0.847277   -3.321850    0.703550
H      1.155648    3.528237    1.382750
