32

C     -0.203552   -1.735044   -0.254786
C      0.208336   -0.467225    0.514737
O     -0.692018    0.610526    0.237638
C     -2.077846    0.420842    0.183310
C     -2.606651   -0.876718    0.070391
C     -1.667622   -2.009640   -0.057975
O     -2.088012   -3.198013   -0.068694
C     -3.998633   -1.059671    0.047079
C     -4.851411    0.046551    0.117195
C     -4.323921    1.339587    0.206584
C     -2.934521    1.524997    0.236179
O     -5.187067    2.431284    0.266965
C      1.620574   -0.065489    0.164829
C      2.685029   -0.413812    1.010984
C      4.004449   -0.075275    0.684552
C      4.267841    0.619556   -0.519980
C      3.205436    0.951096   -1.368232
C      1.893970    0.608578   -1.035005
O      5.555403    0.993756   -0.909755
O      5.012655   -0.447883    1.575950
H     -0.017240   -1.601420   -1.342465
H      0.396357   -2.599993    0.103917
H      0.142644   -0.687612    1.604261
H     -4.425014   -2.051298   -0.038211
H     -5.923784   -0.100289    0.094323
H     -2.520497    2.522550    0.312090
H     -4.837004    3.379990    0.332553
H      2.491917   -0.953325    1.930431
H      3.399041    1.476308   -2.295108
H      1.091322    0.867570   -1.714469
H      6.386363    0.805903   -0.367702
H      5.993456   -0.256387    1.431195
