21

C      1.859357    1.512195    0.332736
C      0.768593    0.432893    0.377384
C      1.410794   -0.932694    0.667345
C     -0.028425    0.440081   -0.954380
C     -1.341684   -0.370248   -0.959088
C     -2.289706    0.085929    0.122062
O     -3.029933    1.083640   -0.083425
O     -2.337145   -0.549138    1.361399
O     -1.076099   -1.744161   -0.854853
H      2.576864    1.310026   -0.491675
H      2.415631    1.540098    1.294163
H      1.404728    2.513665    0.175578
H      0.091783    0.689586    1.220255
H      2.005341   -1.281925   -0.203884
H      2.082424   -0.863826    1.549745
H      0.638945   -1.688782    0.911316
H      0.622630    0.071687   -1.777831
H     -0.290977    1.491545   -1.208139
H     -1.830283   -0.181445   -1.943991
H     -1.743606   -1.339939    1.578379
H     -1.909231   -2.219188   -1.113096
