35

C      2.543103   -0.831116    0.337172
C      1.509429   -0.066621    1.173397
C      0.120748   -0.388450    0.710152
O     -0.547942   -1.267612    1.318589
N     -0.423192    0.270615   -0.443030
C     -1.790715    0.029603   -0.912966
C     -2.772697    0.924126   -0.133405
C     -4.236627    0.586989   -0.446023
C     -5.154795    1.439879    0.370616
O     -5.538619    2.556440   -0.069966
O     -5.548493    1.018745    1.636891
C     -1.872256    0.285735   -2.397901
O     -1.602599    1.427017   -2.858500
O     -2.250296   -0.727682   -3.274728
C      3.981655   -0.547220    0.806259
C      4.957719   -1.433394    0.077866
O      5.090071   -1.344320   -1.172962
O      5.714474   -2.359143    0.789579
N      4.319870    0.865557    0.613181
H      2.435483   -0.549931   -0.734387
H      2.340591   -1.921975    0.429319
H      1.676809    1.028117    1.081616
H      1.615071   -0.341019    2.245993
H      0.145034    1.024748   -0.892627
H     -2.053245   -1.035142   -0.726445
H     -2.574049    1.994210   -0.366028
H     -2.600200    0.778270    0.956186
H     -4.434837   -0.481886   -0.214543
H     -4.447469    0.752827   -1.524720
H     -6.156474    1.592394    2.209112
H     -2.480135   -1.656354   -2.942533
H      4.047459   -0.779568    1.892751
H      6.374404   -2.964434    0.315985
H      4.325879    1.088882   -0.409224
H      5.286841    1.031717    0.976759
