34

C     -3.654423    1.469592   -1.047291
C     -2.124812    1.506025   -1.138411
C     -1.578223    0.111821   -1.292499
O     -1.594911   -0.446042   -2.424092
N     -1.083834   -0.596694   -0.146240
C     -0.416159   -1.898342   -0.254992
C      1.066176   -1.705567   -0.654168
C      1.825334   -0.801839    0.290805
C      1.773635    0.593817    0.130420
C      2.458314    1.433012    1.014009
C      3.207288    0.887400    2.064782
C      3.269536   -0.500330    2.224238
C      2.584595   -1.341978    1.342499
O      3.893032    1.713508    2.952308
C     -0.595009   -2.696620    1.019000
O      0.279671   -3.528255    1.379061
O     -1.775839   -2.610301    1.754197
N     -1.679394    2.350628   -2.249467
H     -4.093457    1.033957   -1.970592
H     -4.051502    2.497989   -0.912194
H     -3.969375    0.856325   -0.175799
H     -1.731190    1.941628   -0.193277
H     -1.082178   -0.107959    0.778422
H     -0.907333   -2.491966   -1.056587
H      1.106009   -1.271719   -1.677345
H      1.569265   -2.694725   -0.726870
H      1.202192    1.032408   -0.678012
H      2.406454    2.506098    0.880844
H      3.850688   -0.927290    3.031730
H      2.654276   -2.413396    1.477462
H      3.868315    2.722616    2.862953
H     -2.546411   -2.022124    1.461212
H     -2.166968    2.060576   -3.129015
H     -1.963761    3.337746   -2.051516
