36

C      3.919106   -0.329514    0.705081
C      2.561002   -0.071991    0.915724
C      1.723447    0.259912   -0.167004
C      2.272726    0.330475   -1.451577
C      3.629958    0.074147   -1.663393
C      4.469051   -0.259200   -0.585850
N      5.867708   -0.525150   -0.797744
O      6.361303   -0.464460   -1.943065
O      6.685642   -0.851229    0.259884
O      0.351632    0.531534   -0.025327
C     -0.415234    0.467811    1.185812
C     -0.925430   -0.962107    1.481387
C     -1.955706   -1.396915    0.418481
C     -3.048452   -0.319132    0.274042
C     -2.394279    1.071777    0.056210
O     -1.504616    1.376275    1.122198
C     -3.452618    2.182194   -0.002571
O     -4.220281    2.068073   -1.169140
O     -3.925289   -0.650580   -0.774693
O     -2.517941   -2.644540    0.742409
O      0.132393   -1.882636    1.586327
H      4.538968   -0.585251    1.554689
H      2.181840   -0.144729    1.923840
H      1.641262    0.585455   -2.293420
H      4.022335    0.136735   -2.670275
H      0.208169    0.802855    2.039413
H     -1.435736   -0.930285    2.469516
H     -1.434713   -1.502410   -0.559267
H     -3.638648   -0.283854    1.216781
H     -1.850880    1.086902   -0.916775
H     -2.938924    3.169915   -0.001818
H     -4.109880    2.129682    0.894739
H     -4.886788    2.802477   -1.133294
H     -3.399971   -0.652191   -1.617471
H     -2.981338   -2.550308    1.615599
H      0.470180   -2.069739    0.672332
