26

C     -0.726714   -0.992106   -0.774073
C     -2.075862   -0.763095   -1.054438
C     -2.876316   -0.055339   -0.148450
C     -2.315876    0.427066    1.045957
C     -0.963990    0.195821    1.324085
C     -0.157539   -0.520631    0.422740
C      1.313248   -0.734257    0.728251
C      2.204763    0.394079    0.148341
C      2.164442    0.418249   -1.357647
O      1.321986    1.133473   -1.965103
O      3.036622   -0.388110   -2.082166
N      1.812903    1.697499    0.691686
O      1.727077   -1.987107    0.241852
O     -3.084506    1.138712    1.966525
O     -4.222375    0.171351   -0.431149
H     -0.126133   -1.532904   -1.494631
H     -2.498295   -1.134164   -1.979586
H     -0.542202    0.578689    2.245480
H      1.438232   -0.735950    1.837264
H      3.256508    0.189842    0.453640
H      3.013306   -0.399657   -3.094792
H      2.487413    2.416788    0.341392
H      1.935022    1.671970    1.730357
H      2.593979   -2.195948    0.678926
H     -4.066512    1.332937    1.811657
H     -4.649179   -0.165940   -1.286120
