47

C     -5.745434   -0.356109   -0.187002
C     -5.166995    1.014807    0.174766
C     -3.934307    0.970048    1.114734
C     -4.327570    0.521207    2.530685
C     -2.762316    0.107425    0.587366
C     -2.215856    0.604236   -0.766968
C     -0.946194   -0.137036   -1.253730
C     -1.215890   -1.635411   -1.474952
C      0.260311    0.101504   -0.313510
C      1.602620   -0.234377   -0.982382
C      2.778269    0.102177   -0.056126
C      4.119671   -0.256427   -0.715206
C      5.337780    0.207862    0.114972
C      5.465646   -0.572030    1.432522
C      6.623623    0.052669   -0.707581
H     -6.029886   -0.921999    0.723307
H     -6.657938   -0.215305   -0.803728
H     -5.020949   -0.947297   -0.783952
H     -4.903043    1.549902   -0.761868
H     -5.967821    1.617558    0.656150
H     -3.564296    2.015721    1.208168
H     -5.177223    1.128276    2.909483
H     -4.613524   -0.551292    2.545734
H     -3.471858    0.662743    3.225009
H     -1.946397    0.149935    1.339188
H     -3.080299   -0.952925    0.507516
H     -2.999519    0.487094   -1.545315
H     -1.990981    1.691038   -0.694575
H     -0.699002    0.301811   -2.246501
H     -0.394362   -2.093678   -2.063341
H     -2.156463   -1.778652   -2.048461
H     -1.299815   -2.173473   -0.507249
H      0.279445    1.172458   -0.012891
H      0.153081   -0.509051    0.609352
H      1.638339   -1.317209   -1.227871
H      1.701285    0.347272   -1.925222
H      2.760356    1.189101    0.179043
H      2.661028   -0.468882    0.889336
H      4.171628   -1.355581   -0.880065
H      4.159488    0.236173   -1.712267
H      5.221208    1.287917    0.355939
H      4.612187   -0.348976    2.105042
H      5.502019   -1.665803    1.240048
H      6.392577   -0.273659    1.967443
H      6.559412    0.653888   -1.639603
H      6.789332   -1.012545   -0.978023
H      7.498633    0.416230   -0.127412
