33

C     -3.491738   -0.052821   -1.296000
C     -3.003998    1.226407   -0.625742
N     -1.761489    0.970583    0.117102
C     -1.735361    1.150935    1.577855
C     -2.658208    0.159965    2.286881
C     -0.523185    0.840821   -0.612432
O     -0.342739    1.522688   -1.658292
C      0.545023   -0.078047   -0.163087
C      1.895351    0.266142   -0.341796
C      2.919299   -0.605960    0.079222
C      2.578499   -1.831218    0.669343
C      1.232481   -2.182854    0.831558
C      0.222698   -1.314741    0.413399
O      3.586269   -2.697971    1.089017
O      4.279148   -0.291672   -0.071319
C      4.768938    0.913015   -0.651307
H     -2.737081   -0.416990   -2.024811
H     -4.441904    0.146266   -1.834760
H     -3.669611   -0.839066   -0.532058
H     -3.800356    1.604306    0.050818
H     -2.838629    2.011740   -1.394509
H     -0.705810    1.017394    1.974995
H     -2.049296    2.187790    1.825570
H     -2.551518    0.278395    3.385679
H     -2.395678   -0.882660    2.018769
H     -3.718885    0.345737    2.020375
H      2.140949    1.217408   -0.794935
H      0.967753   -3.134409    1.274836
H     -0.808833   -1.621913    0.513917
H      3.373266   -3.591068    1.517889
H      4.423273    0.998581   -1.703174
H      5.877952    0.894634   -0.642529
H      4.423418    1.788586   -0.062057
