30

C      0.085764   -1.294553   -0.812046
C      1.559473   -1.634561   -0.552854
C      2.334673   -0.425519   -0.093065
C      3.731440   -0.388329   -0.221638
C      4.449338    0.722121    0.233186
C      3.779097    1.795599    0.826886
C      2.389370    1.759473    0.973103
C      1.665218    0.649387    0.525747
O      0.273609    0.625402    0.673391
C     -0.502732   -0.541858    0.392423
C     -1.938069   -0.156303    0.131053
C     -2.986088   -0.925362    0.666440
C     -4.316741   -0.587539    0.400407
C     -4.612340    0.512384   -0.408980
C     -3.577693    1.274243   -0.957810
C     -2.245633    0.940504   -0.694704
H     -0.483237   -2.233354   -0.988801
H      0.013360   -0.663345   -1.725507
H      1.625590   -2.420056    0.230744
H      2.003791   -2.039826   -1.487896
H      4.262148   -1.216576   -0.674628
H      5.526100    0.749865    0.126946
H      4.337245    2.654348    1.176848
H      1.875053    2.591468    1.436915
H     -0.449986   -1.207874    1.282922
H     -2.774171   -1.786357    1.288180
H     -5.119112   -1.181030    0.819298
H     -5.642892    0.771382   -0.614750
H     -3.807740    2.121746   -1.590501
H     -1.454836    1.534519   -1.135921
