47

C     -1.763899    2.175310    1.293475
C     -2.140035    0.857671    0.603193
C     -3.622739    0.873146    0.151177
C     -4.208113   -0.563815    0.106353
C     -3.110018   -1.592165   -0.206970
C     -1.937054   -1.466644    0.816250
O     -1.918905   -0.216022    1.498983
O     -0.694395   -1.684545    0.170587
C      0.288840   -2.091216    1.102285
C      1.688885   -1.963627    0.477750
C      2.037149   -0.487969    0.130116
C      3.408832   -0.356414   -0.586422
C      3.804181    1.117253   -0.873267
C      2.801268    1.823167   -1.802874
O      3.283650    3.085730   -2.177315
O      5.070597    1.148193   -1.483347
O      4.402773   -0.957872    0.207208
O      1.996749    0.314683    1.285362
O      1.796661   -2.798047   -0.650231
O     -2.657264   -1.387844   -1.523408
O     -4.791779   -0.884742    1.344424
O     -3.705146    1.467660   -1.119408
O     -0.403513    2.180029    1.631807
H     -2.358341    2.292163    2.224935
H     -1.996856    3.039168    0.629082
H     -1.477570    0.759265   -0.290616
H     -4.223005    1.475422    0.874942
H     -4.987442   -0.632775   -0.689646
H     -3.559700   -2.611304   -0.128356
H     -2.123638   -2.254640    1.584747
H      0.258957   -1.480407    2.034560
H      0.119844   -3.156010    1.378017
H      2.418946   -2.329805    1.232193
H      1.250885   -0.121072   -0.562624
H      3.334331   -0.890529   -1.564199
H      3.835833    1.684726    0.087220
H      1.813521    1.940093   -1.304511
H      2.653032    1.217695   -2.722473
H      3.185390    3.674456   -1.383741
H      5.746382    1.149482   -0.755804
H      5.093957   -1.317050   -0.408539
H      2.678307   -0.032564    1.918002
H      1.204292   -2.430854   -1.357368
H     -2.269635   -2.247924   -1.833289
H     -5.668908   -0.420460    1.378208
H     -4.652088    1.735785   -1.251514
H      0.096776    2.365221    0.794354
