26

C     -1.423664    1.755238    1.004104
N     -1.199167    0.322128    0.757387
C     -2.463030   -0.407627    0.557307
C     -2.333623   -1.243862   -0.710907
C     -0.863314   -1.208294   -1.057676
C     -0.379592    0.096015   -0.443333
C      1.090541    0.031685   -0.091046
C      1.540389   -0.697362    1.024048
N      2.867930   -0.760924    1.311725
C      3.797045   -0.136848    0.540772
C      3.399478    0.588825   -0.583044
C      2.042688    0.668915   -0.901359
H     -1.972552    2.231152    0.160891
H     -0.450020    2.272915    1.140840
H     -2.010440    1.887528    1.938131
H     -3.347103    0.265857    0.473434
H     -2.624738   -1.077180    1.429133
H     -2.687180   -2.286080   -0.552763
H     -2.921958   -0.776777   -1.531633
H     -0.358290   -2.084589   -0.592641
H     -0.701550   -1.229037   -2.157636
H     -0.556600    0.902657   -1.195378
H      0.836646   -1.216437    1.661826
H      4.845346   -0.207562    0.798305
H      4.136391    1.082653   -1.203143
H      1.736370    1.227009   -1.777344
