31

C      3.121837    1.886025   -0.593131
C      2.058205    0.782017   -0.451038
C      1.003351    1.226059    0.605491
C     -0.112058    0.224979    0.808287
C     -1.293125    0.316159    0.052756
C     -2.328245   -0.624291    0.223542
C     -2.172608   -1.654242    1.161994
C     -0.997752   -1.743614    1.919530
C      0.025624   -0.810690    1.744607
O     -3.193126   -2.587605    1.336201
O     -3.518899   -0.569024   -0.517893
C     -3.807419    0.413822   -1.507012
C      2.754036   -0.491465   -0.010564
O      3.378778   -0.524250    1.084793
O      2.718720   -1.631270   -0.810385
N      1.432126    0.582740   -1.767548
H      2.655897    2.834481   -0.937428
H      3.891260    1.588221   -1.338279
H      3.627070    2.080512    0.377867
H      0.563824    2.202252    0.301984
H      1.505169    1.412173    1.581285
H     -1.394570    1.116596   -0.667790
H     -0.876876   -2.537688    2.645369
H      0.924677   -0.895249    2.341702
H     -3.111760   -3.343797    2.005883
H     -3.058214    0.363489   -2.325251
H     -4.812193    0.215349   -1.932860
H     -3.808527    1.426167   -1.050545
H      3.181504   -2.484389   -0.520415
H      0.890054    1.438315   -2.031112
H      0.753241   -0.211782   -1.730040
