40

C     -4.041114   -0.260389    1.206668
C     -5.384175   -0.023216    0.898834
C     -5.833726   -0.135611   -0.423944
C     -4.933209   -0.484627   -1.435622
C     -3.589673   -0.722263   -1.130284
C     -3.135358   -0.619004    0.194638
C     -1.678945   -0.842433    0.515911
C     -0.829832    0.403774    0.203375
C     -1.215907    1.562099    1.084457
O     -1.061134    1.492874    2.334005
O     -1.763093    2.709047    0.517591
N      0.593286    0.094474    0.373756
C      1.350976   -0.602262   -0.626457
O      0.817369   -0.923962   -1.722841
C      2.799055   -0.910859   -0.392110
C      3.666729    0.308197   -0.744404
C      5.167676    0.139723   -0.410513
C      5.395050   -0.033812    1.071074
O      5.562563   -1.180848    1.564958
O      5.376026    1.071754    1.916732
N      5.793998   -0.944979   -1.174272
O     -7.169358    0.098897   -0.742540
H     -3.706954   -0.160798    2.231960
H     -6.073198    0.250891    1.687572
H     -5.274269   -0.568540   -2.459743
H     -2.902227   -0.983503   -1.925557
H     -1.555260   -1.127632    1.584238
H     -1.309475   -1.701901   -0.084832
H     -1.005522    0.707857   -0.852960
H     -2.037918    3.493862    1.096160
H      1.071100    0.341996    1.270592
H      2.937377   -1.191963    0.673182
H      3.086067   -1.780925   -1.019650
H      3.284505    1.198508   -0.196508
H      3.561865    0.524604   -1.830542
H      5.674337    1.084882   -0.706315
H      5.221660    2.005655    1.555928
H      5.359688   -1.862615   -0.926390
H      5.626901   -0.781414   -2.193747
H     -7.845880    0.354464   -0.032791
