23

C      2.337616   -0.368157    1.326377
C      3.244560    0.012869    0.334562
C      2.824923    0.116093   -0.994158
C      1.497603   -0.163662   -1.336194
C      0.579995   -0.557457   -0.343859
C      1.009954   -0.649629    0.991326
C     -0.862538   -0.831839   -0.694914
C     -1.684541    0.471113   -0.792609
C     -1.775063    1.158400    0.541446
O     -1.228694    2.281314    0.711109
O     -2.447667    0.548858    1.596841
N     -3.034412    0.201267   -1.291049
F      1.107802   -0.048603   -2.631180
H      2.662716   -0.442777    2.356046
H      4.271879    0.231345    0.595998
H      3.529230    0.416211   -1.759362
H      0.316686   -0.935839    1.772598
H     -1.318178   -1.514035    0.056850
H     -0.902025   -1.366825   -1.668834
H     -1.182685    1.155936   -1.513516
H     -2.507218    0.997434    2.503060
H     -2.963242   -0.160537   -2.270075
H     -3.476701   -0.551478   -0.713768
