18

C      1.641177   -1.531938    0.216277
C      1.152739   -0.289537    0.115096
C     -0.213576    0.015512    0.684983
C     -1.286313   -0.100039   -0.400785
C     -2.639301    0.213300    0.162273
O     -3.385400   -0.719229    0.561242
O     -3.064570    1.532447    0.288786
C      1.912707    0.784833   -0.575161
O      1.623728    1.990294   -0.352507
O      2.928648    0.505446   -1.489678
H      2.625329   -1.794203   -0.144612
H      1.068595   -2.314772    0.698326
H     -0.452383   -0.681601    1.519583
H     -0.223417    1.041130    1.114045
H     -1.064701    0.607913   -1.228735
H     -1.288172   -1.130496   -0.819651
H     -2.475912    2.302645   -0.005391
H      3.140823   -0.431705   -1.805510
