22

C     -1.944058   -1.787579   -0.442523
C     -0.580269   -1.534303   -0.577675
C     -0.076266   -0.237271   -0.393033
C     -0.954391    0.811829   -0.041501
C     -2.341095    0.546861    0.088703
C     -2.818259   -0.752627   -0.114470
O     -3.272475    1.535091    0.415042
O     -0.420291    2.086307    0.172870
C      1.409251    0.001869   -0.513732
C      2.088536   -0.127006    0.852033
C      3.561131    0.104688    0.729153
O      4.030770    1.267858    0.838387
O      4.410655   -0.956880    0.444593
H     -2.324857   -2.789877   -0.590943
H      0.085679   -2.351818   -0.825467
H     -3.876044   -0.961214   -0.014234
H     -3.040551    2.506288    0.563855
H     -0.963682    2.891423    0.447505
H      1.599815    1.012076   -0.937898
H      1.854569   -0.732843   -1.221061
H      1.914775   -1.144998    1.263814
H      1.657057    0.612127    1.562169
