15

C      1.669377    0.050915   -0.873463
C      0.294768   -0.473432   -0.590921
O      0.134222   -1.709281   -0.401805
C     -0.858975    0.451142   -0.584492
C     -2.007664    0.265622    0.083603
C     -2.252200   -0.772358    1.101466
O     -3.435433   -1.114073    1.360415
O     -1.212198   -1.315098    1.846493
C      2.263791    0.620786    0.373502
O      2.118500    1.841927    0.644211
O      2.937210   -0.206283    1.263530
H      1.626197    0.830688   -1.664565
H      2.318969   -0.769738   -1.247539
H     -0.782138    1.335113   -1.206113
H     -2.814426    0.964071   -0.104323
