12

C      1.396945    0.555977   -0.148000
N      0.294462   -0.014516   -0.927430
C     -0.651229   -0.733172   -0.063920
C     -1.563064    0.229032    0.630498
O     -2.453290    0.837748   -0.019251
O     -1.412236    0.475429    1.989216
H      2.093235    1.085506   -0.831903
H      1.964229   -0.240992    0.381667
H      1.013413    1.295084    0.587220
H      0.711733   -0.710102   -1.589441
H     -1.274071   -1.410676   -0.688359
H     -0.120126   -1.369317    0.679704
