26

C     -3.501197    0.360623    0.329762
C     -2.011222    0.117740    0.268063
C     -1.498492   -1.199476    0.379859
C     -0.113739   -1.403766    0.443562
C      0.778955   -0.333123    0.349428
C      0.275639    0.966284    0.202571
C     -1.106615    1.202211    0.128311
N     -1.571380    2.543021   -0.104149
O     -0.956409    3.513672    0.384097
O     -2.552945    2.781186   -1.038649
N      2.192056   -0.584709    0.441968
C      3.190954    0.156090   -0.275941
O      2.867380    0.918656   -1.226212
C      4.637087   -0.050448    0.036654
N     -2.362665   -2.344965    0.418672
H     -3.951871    0.187214   -0.669660
H     -3.978743   -0.307509    1.075941
H     -3.737364    1.389523    0.669332
H      0.274755   -2.409808    0.547524
H      0.957895    1.804103    0.146959
H      2.508550   -1.411571    0.997897
H      4.997879   -0.967770   -0.473143
H      5.235259    0.818965   -0.309663
H      4.774903   -0.162677    1.132515
H     -3.378235   -2.285721    0.188633
H     -1.970433   -3.297747    0.590311
