24

C     -1.250434    2.217318   -0.368222
C     -2.389573    1.528252   -0.254168
C     -2.366005    0.043313    0.008144
C     -1.167019   -0.325687    0.916189
C      0.118651    0.350289    0.452248
C      0.050035    1.571968   -0.106871
C      1.468472   -0.249664    0.767961
C      2.149972   -0.762514   -0.504328
C      3.475173   -1.374751   -0.178255
O      3.555873   -2.600314    0.099134
O      4.614825   -0.581883   -0.131978
O     -1.029102   -1.722487    1.015035
O     -2.270433   -0.637265   -1.216684
H     -1.279120    3.263559   -0.644104
H     -3.335691    2.021331   -0.438932
H     -3.306278   -0.249792    0.530010
H     -1.385018    0.060973    1.935701
H      0.954947    2.113334   -0.355108
H      2.109043    0.516906    1.258183
H      1.357721   -1.088277    1.488944
H      1.504942   -1.520626   -0.999962
H      2.306429    0.076157   -1.216694
H     -0.720863   -2.060487    0.134032
H     -3.166547   -0.589651   -1.642137
