30

C      0.268481   -1.297400    0.005537
C      1.762705   -1.297518    0.151554
C      2.482983   -0.187681   -0.031349
C      3.949033   -0.204105    0.100967
C      4.666893    0.908377   -0.082582
C      6.133248    0.930927    0.041678
O      6.777091   -0.114324    0.330249
O      6.814657    2.125994   -0.163285
C     -0.401734   -0.548948    1.164773
C     -1.897984   -0.615395    1.060542
C     -2.564039    0.061572    0.121174
C     -4.033084   -0.000018    0.037933
C     -4.691510    0.670185   -0.913399
C     -6.160813    0.647459   -1.062285
O     -6.666401    1.096397   -2.123893
O     -7.013005    0.169782   -0.066223
H     -0.086913   -2.350994   -0.001062
H     -0.007388   -0.836162   -0.967982
H      2.257561   -2.233857    0.383157
H      1.981735    0.740495   -0.283345
H      4.444572   -1.135442    0.351568
H      4.166223    1.836593   -0.332528
H      7.823698    2.169274   -0.083928
H     -0.092502   -1.014977    2.125816
H     -0.079526    0.515255    1.180197
H     -2.439127   -1.208098    1.789309
H     -2.015349    0.668950   -0.590404
H     -4.563671   -0.616976    0.749990
H     -4.127655    1.241632   -1.642421
H     -6.688179   -0.120997    0.845899
