22

C      2.308945    0.009003    1.324362
C      1.614279   -0.231108   -0.017390
C      0.088053   -0.420283    0.166925
C     -0.650305    0.825147    0.659565
C     -2.076809    0.706102    0.127363
C     -2.079409   -0.425286   -0.899603
C     -0.624971   -0.808752   -1.122795
O      1.890089    0.850472   -0.873331
H      1.958975    0.957339    1.784497
H      2.105084   -0.831342    2.021762
H      3.406719    0.077234    1.169860
H      2.034797   -1.177242   -0.436218
H     -0.082481   -1.239847    0.903103
H     -0.642361    0.877375    1.770198
H     -0.187124    1.751514    0.254873
H     -2.391943    1.661649   -0.346467
H     -2.780155    0.471151    0.956242
H     -2.635754   -1.298959   -0.493518
H     -2.556860   -0.105425   -1.851384
H     -0.229989   -0.231100   -1.986774
H     -0.520438   -1.895672   -1.332101
H      2.051657    0.478032   -1.779168
