20

C     -2.707888   -0.229009   -0.282542
C     -1.398698    0.207225   -0.887893
O     -1.345162    0.407999   -2.092308
C     -0.156966    0.443516   -0.048363
C      0.992851   -0.501777   -0.468194
C      2.236683   -0.212300    0.339257
O      2.444008   -0.843509    1.410811
C      3.189510    0.831788   -0.071585
O      2.989865    1.509480   -1.114129
O      4.320479    1.079282    0.696527
O      0.602409   -1.841511   -0.297411
O     -0.431797    0.348860    1.330126
O     -3.209812    0.767588    0.565071
H     -2.553920   -1.160066    0.301161
H     -3.449667   -0.461568   -1.080724
H      0.169759    1.488104   -0.245487
H      1.213836   -0.325182   -1.547181
H      1.249665   -2.396355   -0.806910
H     -0.602441   -0.604432    1.546318
H     -3.552713    1.491868   -0.021348
