46

C     -4.082419    1.860190   -2.450319
C     -3.603936    1.702089   -1.208564
C     -4.113010    2.558607   -0.109192
O     -4.847867    3.555429   -0.342603
C     -2.589767    0.595248   -0.936352
C     -1.411180    1.038716   -0.066360
C     -0.895419   -0.247326    0.561804
C     -2.157162   -1.105749    0.776875
C     -3.134353   -0.724914   -0.315459
C     -4.472235   -0.660061    0.430570
O     -4.222518   -0.334530    1.776960
C     -2.912329   -0.760076    2.077665
O     -5.149553   -1.890905    0.351442
O     -1.866197   -2.482574    0.718828
O     -0.006415   -0.911365   -0.341157
C      1.319126   -0.515849   -0.547313
O      1.791636    0.476048    0.072811
C      2.124745   -1.244134   -1.545490
C      3.462786   -1.209570   -1.648269
C      4.379977   -0.585868   -0.671914
C      4.280099   -0.863712    0.702930
C      5.189183   -0.300523    1.603626
C      6.218512    0.525210    1.140546
C      6.340194    0.780833   -0.232035
C      5.431906    0.218605   -1.134500
O      7.116411    1.080828    2.049114
H     -4.821845    2.616847   -2.680418
H     -3.749715    1.227785   -3.263892
H     -3.868760    2.330057    0.918488
H     -2.128050    0.305948   -1.910087
H     -1.721263    1.724645    0.747621
H     -0.632569    1.551322   -0.672122
H     -0.370846   -0.052985    1.524512
H     -3.181252   -1.503834   -1.111764
H     -5.152123    0.095811   -0.004484
H     -2.406170    0.049354    2.645741
H     -2.969818   -1.643256    2.750357
H     -4.630441   -2.559217    0.869946
H     -1.209571   -2.672509    1.439482
H      1.579203   -1.817517   -2.284807
H      3.913034   -1.684266   -2.511903
H      3.505024   -1.521583    1.076346
H      5.098497   -0.512376    2.661414
H      7.139738    1.410827   -0.600539
H      5.543015    0.418734   -2.193347
H      7.873698    1.681568    1.744957
