15

C     -0.225911   -0.427589    0.589934
C      1.168355    0.040331    1.029119
C      2.179842   -0.090488   -0.071966
O      2.481322   -1.189875   -0.508760
C     -0.836079    0.493885   -0.473943
C     -2.212166    0.033439   -0.837400
O     -2.375784   -0.807841   -1.759883
O     -3.311107    0.495803   -0.124532
H     -0.887530   -0.435568    1.484114
H     -0.167825   -1.469048    0.202504
H      1.502532   -0.571781    1.894294
H      1.120995    1.099310    1.363515
H      2.657199    0.796014   -0.476460
H     -0.893586    1.533301   -0.084317
H     -0.200257    0.500108   -1.385758
