19

C      0.650768   -0.911449   -0.020450
C     -0.266319    0.295706   -0.294275
C     -1.753360   -0.119880   -0.264660
C     -2.631736    1.000057   -0.748408
O     -2.721758    2.041217   -0.116581
O     -2.144584   -0.477197    1.036911
O     -0.038607    1.297735    0.666284
C      2.097497   -0.559484   -0.236895
O      2.574856   -0.614921   -1.401859
C      2.958003   -0.115189    0.871759
O      2.502678   -0.024557    2.042423
O      4.286525    0.211486    0.629702
H      0.386372   -1.743974   -0.708753
H      0.499024   -1.281509    1.016415
H     -0.043349    0.681932   -1.319008
H     -1.906381   -0.977027   -0.962969
H     -3.203406    0.881090   -1.663257
H     -1.952353   -1.445184    1.144217
H      0.706129    1.861147    0.329404
