21

C      1.935601   -0.206731    0.136013
C      0.527439    0.371349    0.355459
C     -0.595488   -0.493278   -0.275618
C     -1.981635    0.163669   -0.026207
C     -2.143637    1.473250   -0.741463
O     -2.454326    1.495751   -1.961512
O     -1.928611    2.667573   -0.065109
C     -0.589012   -1.869528    0.362140
O     -0.218009   -2.879614   -0.293587
O     -0.952727   -2.023062    1.695355
O     -0.358102   -0.599514   -1.662536
C      2.969576    0.698664    0.727318
O      3.478483    1.617921    0.033440
O      3.335303    0.559383    2.060169
H      2.022055   -1.203964    0.617359
H      2.134938   -0.328063   -0.950739
H      0.500520    1.388991   -0.092179
H      0.345423    0.481219    1.448270
H     -2.135816    0.329790    1.062704
H     -2.788703   -0.522518   -0.366639
H     -1.103270   -1.121287   -2.062639
