27

C      2.414465   -0.049933    1.179340
C      2.589687    0.250620   -0.288935
C      1.563928    0.671108   -1.063774
C      0.141440    0.817048   -0.583783
C     -0.618929   -0.506995   -0.722851
C     -2.036814   -0.369170   -0.216883
C     -2.250373   -0.362387    1.116810
C     -3.559099   -0.241868    1.795215
O     -4.639007   -0.146782    1.155572
O     -3.596790   -0.236652    3.183387
C     -3.154878   -0.248449   -1.220967
C      3.969482    0.117139   -0.879592
H      2.087066    0.863245    1.718835
H      1.667627   -0.856658    1.324233
H      3.372385   -0.386179    1.629865
H      1.748719    0.905771   -2.108802
H      0.111556    1.186494    0.462933
H     -0.361416    1.583106   -1.213329
H     -0.615112   -0.812913   -1.791756
H     -0.102940   -1.315856   -0.162105
H     -1.391750   -0.453501    1.772660
H     -3.855366   -1.103305   -1.115310
H     -3.695963    0.709695   -1.073294
H     -2.769263   -0.253092   -2.261771
H      4.357335   -0.905594   -0.689183
H      4.648104    0.854745   -0.402330
H      3.975908    0.290362   -1.977178
