32

C      4.390289    0.186854   -0.595873
O      5.173552    0.910050    0.076757
C      3.984917   -1.164942   -0.079626
C      3.136272   -1.085171    1.213758
C      1.854860   -0.202073    1.158753
C      0.811713   -0.622851    0.080645
C     -0.564888    0.077237    0.273593
C     -1.606599   -0.338868   -0.807280
C     -2.893292    0.533236   -0.847161
C     -3.691842    0.589140    0.485248
C     -5.102488    1.176228    0.304719
F     -5.885671    0.337854   -0.469228
F     -5.038208    2.421477   -0.295357
F     -5.704257    1.314076    1.542940
F     -3.817430   -0.682084    1.021225
F     -3.019956    1.389912    1.394097
F     -2.552126    1.822848   -1.223932
F     -3.704955    0.011542   -1.842484
F     -1.965873   -1.661980   -0.603416
F     -1.030256   -0.255326   -2.064645
F     -0.378231    1.449712    0.235591
F     -1.065089   -0.270289    1.517519
F      1.307456   -0.279899   -1.164934
F      0.625053   -1.995111    0.122146
F      1.274097   -0.273879    2.414738
F      2.216362    1.119006    0.949223
F      3.943584   -0.590518    2.226677
F      2.778082   -2.374059    1.575086
F      3.303049   -1.862874   -1.061194
F      5.139147   -1.877392    0.199585
O      3.908587    0.643829   -1.819039
H      4.174143    1.554315   -2.174796
