33

C     -6.137756   -0.890289    0.362424
C     -6.537170    0.408859    0.037823
C     -5.580575    1.385052   -0.253188
C     -4.218292    1.066265   -0.220986
C     -3.807087   -0.245478    0.106282
C     -4.779593   -1.220935    0.397876
C     -2.429960   -0.529496    0.128971
O     -2.029725   -1.690583    0.419643
C     -1.507010    0.494735   -0.174456
C     -2.011076    1.766629   -0.486657
O     -3.318154    2.001986   -0.498909
C     -0.037778    0.295094   -0.176699
N      0.492093   -0.865388    0.067241
N      1.880189   -1.098774    0.090416
C      2.836742   -0.124733    0.543308
O      2.456572    0.827763    1.277765
C      4.273838   -0.252614    0.199647
C      4.700401   -1.064626   -0.866945
N      6.022646   -1.161536   -1.170237
C      6.970192   -0.487584   -0.467622
C      6.597122    0.337595    0.592977
C      5.246536    0.457626    0.924348
H     -6.882449   -1.642956    0.587130
H     -7.589772    0.659545    0.011818
H     -5.898043    2.389495   -0.503698
H     -4.494661   -2.234459    0.652099
H     -1.335188    2.578704   -0.723644
H      0.597718    1.137593   -0.421742
H      2.205756   -2.077531   -0.069148
H      3.988564   -1.607950   -1.472998
H      8.013282   -0.589360   -0.735753
H      7.347858    0.879473    1.153583
H      4.964781    1.097879    1.751030
