19

C     -3.017187   -0.915700   -0.769325
O     -2.353447    0.339604   -0.663459
C     -1.006170    0.497464   -0.304846
C     -0.167624   -0.595173   -0.015570
C      1.181003   -0.398589    0.330998
C      1.679310    0.925298    0.436008
C      0.843352    2.003056    0.125041
C     -0.485869    1.791555   -0.240887
O      2.973301    1.216621    0.873592
C      2.016059   -1.600873    0.539819
O      3.258328   -1.588594    0.337804
H     -2.529487   -1.541211   -1.546562
H     -4.072878   -0.743812   -1.063125
H     -3.001478   -1.439848    0.209596
H     -0.552489   -1.604651   -0.082309
H      1.221442    3.015527    0.191883
H     -1.119490    2.640268   -0.465695
H      3.588407    0.536718    1.297455
H      1.544916   -2.537657    0.809582
