48

C      4.785687   -3.387380   -0.966102
O      3.835200   -2.368278   -0.707666
N      4.228515   -1.050505   -0.641481
C      3.374403   -0.101927   -0.422280
C      1.934262   -0.336916   -0.168631
N      1.419692    0.980223    0.175461
C      2.459638    2.009670    0.185003
C      3.764443    1.331877   -0.279815
C      4.274994    1.941341   -1.606728
N      5.607838    1.458561   -1.970396
C      0.013763    1.210654    0.407641
C     -0.481888    2.432161    0.901171
C     -1.855433    2.587004    1.097595
C     -2.739655    1.536124    0.807379
C     -4.130123    1.663286    0.971774
O     -4.612699    2.744724    1.406761
C     -4.977595    0.589095    0.637370
C     -4.396581   -0.596682    0.156127
N     -3.040882   -0.732983    0.044320
C     -2.210692    0.320331    0.328579
N     -0.865943    0.204326    0.145681
C     -2.493254   -1.985576   -0.502573
C     -1.547639   -2.718864    0.444416
C     -2.948507   -3.254872    0.211514
C     -6.456818    0.678082    0.775718
O     -7.185113   -0.299701    0.454850
O     -7.060909    1.836082    1.261225
F      0.336537    3.471425    1.203464
H      5.261412   -3.214586   -1.953859
H      4.272728   -4.371681   -0.975508
H      5.562586   -3.387327   -0.172714
H      1.439394   -0.726497   -1.085551
H      1.795869   -1.034188    0.687112
H      2.163315    2.849050   -0.483119
H      2.591018    2.393570    1.220479
H      4.538570    1.432932    0.511804
H      4.333137    3.044886   -1.493514
H      3.562774    1.725657   -2.432718
H      5.556961    0.446773   -2.226090
H      6.249761    1.566219   -1.151070
H     -2.223941    3.534047    1.474073
H     -5.037174   -1.423755   -0.128987
H     -2.278085   -2.047353   -1.590758
H     -0.750155   -3.302349   -0.063716
H     -1.407064   -2.260118    1.446674
H     -2.977757   -4.162429   -0.428722
H     -3.616879   -3.121894    1.088913
H     -8.067714    1.897760    1.355223
