27

C     -1.713570    1.565157   -1.344555
C     -3.151965    1.496177   -0.933636
O     -4.075374    2.160958   -1.473720
N     -3.369711    0.578594    0.132747
C     -2.094307    0.000591    0.352339
O     -1.872128   -0.862606    1.242348
N     -1.093729    0.535463   -0.516729
N      0.300646    0.408924   -0.375676
C      0.881320   -0.651239    0.093867
C      2.339656   -0.689039    0.221843
C      3.075917   -1.763517    0.685494
C      4.395767   -1.364258    0.637983
C      4.369687   -0.073001    0.148110
O      3.136441    0.307287   -0.092103
N      5.514189    0.753062   -0.074328
O      5.372357    1.908858   -0.522083
O      6.776955    0.283073    0.202119
C     -4.654741    0.016213    0.538213
O     -5.062322   -0.960736   -0.379052
H     -1.594862    1.318965   -2.420676
H     -1.289348    2.563453   -1.105761
H      0.310358   -1.529693    0.361225
H      2.698427   -2.721594    1.018078
H      5.263321   -1.943591    0.924848
H     -5.417703    0.822106    0.569118
H     -4.578050   -0.416878    1.560790
H     -4.467231   -1.742731   -0.238898
