24

C      4.165995   -0.875235    0.192758
C      4.209008    0.499258    0.294656
N      2.864507   -0.144684    0.218384
C      1.439904   -0.099135    0.191048
C      0.738163   -1.234700    0.092604
C     -0.736633   -1.199115    0.063525
O     -1.388602   -2.272763   -0.029274
C     -1.439904    0.099143    0.143675
C     -0.738167    1.234711    0.242085
C      0.736628    1.199123    0.271219
O      1.388594    2.272765    0.364093
N     -2.864504    0.144682    0.116425
C     -4.209006   -0.499272    0.040352
C     -4.165995    0.875223    0.142069
H      4.361931   -1.309092   -0.810323
H      4.320125   -1.451580    1.129163
H      4.436067    1.063215   -0.634435
H      4.394306    0.920713    1.305017
H      1.250679   -2.187527    0.033695
H     -1.250689    2.187538    0.300983
H     -4.436000   -1.063098    0.969518
H     -4.394388   -0.920853   -0.969934
H     -4.320201    1.451447   -0.794393
H     -4.361817    1.309235    1.145106
