32

C      4.991474   -0.034814    2.039046
C      3.965801    0.398252    0.995745
C      4.093561   -0.435677   -0.284511
C      3.110963    0.017908   -1.328851
C      1.795982   -0.209877   -1.202279
C      0.832641    0.244036   -2.264896
C     -0.583124   -0.087860   -1.894430
C     -1.213499    0.554719   -0.907563
C     -2.604137    0.225903   -0.554113
C     -3.230026    0.868603    0.437780
C     -4.618904    0.574385    0.830096
N     -5.325578   -0.313911    0.199271
N     -6.649399   -0.639427    0.548078
N     -7.093323   -0.702971    1.880554
O     -6.299837   -0.631269    2.841210
H      4.874828    0.583432    2.954006
H      4.839652   -1.101596    2.309297
H      6.022016    0.101693    1.647350
H      4.124376    1.473187    0.758885
H      2.947573    0.279753    1.425933
H      3.928166   -1.512573   -0.061138
H      5.121014   -0.322531   -0.693710
H      3.489350    0.517906   -2.216688
H      1.424154   -0.729518   -0.321897
H      1.083493   -0.267302   -3.219118
H      0.929303    1.340596   -2.422290
H     -1.097001   -0.859031   -2.456992
H     -0.691969    1.329405   -0.355748
H     -3.118021   -0.549838   -1.110489
H     -2.707981    1.641018    0.990268
H     -5.051249    1.149348    1.638585
H     -7.290301   -0.980300   -0.201390
