27

C      3.677627   -0.940695    0.314083
C      2.980684   -1.442428   -0.800488
C      1.706367   -0.936933   -1.053722
C      1.138121    0.018396   -0.250604
C      1.801713    0.531749    0.863911
C      3.090844    0.041611    1.143445
F      3.772826    0.513409    2.215848
C     -0.113194    0.284530   -0.770516
C     -0.247440   -0.550325   -1.875954
N      0.872092   -1.289934   -2.047229
C     -1.159944    1.205223   -0.211527
C     -1.912189    0.558647    0.970439
C     -2.671306   -0.671175    0.541075
O     -2.365173   -1.792972    1.024521
O     -3.704616   -0.593531   -0.390084
N     -2.833468    1.511942    1.591916
H      4.668999   -1.312619    0.538073
H      3.419997   -2.198652   -1.438105
H      1.343130    1.281656    1.495361
H     -1.121196   -0.621108   -2.510660
H      1.043647   -2.000570   -2.792885
H     -1.871208    1.490213   -1.016571
H     -0.663508    2.137991    0.132675
H     -1.162937    0.258592    1.738386
H     -3.978888    0.286728   -0.808161
H     -2.273148    2.281876    2.025211
H     -3.437832    1.948378    0.857922
