13

C     -1.912246    0.391701   -0.228125
C     -0.468135    0.280513   -0.618785
O     -0.014095    1.056125   -1.446482
C      0.428533   -0.763510   -0.012805
C      1.406636   -0.122394    0.922599
O      1.121458   -0.002101    2.143171
O      2.613600    0.383366    0.448501
H     -2.108830    1.405479    0.179352
H     -2.181521   -0.357653    0.545301
H     -2.551910    0.228833   -1.120655
H     -0.166559   -1.521609    0.540498
H      0.973172   -1.297501   -0.820586
H      2.859896    0.318749   -0.531985
