44

C      7.318178    0.821296   -2.053070
O      6.304735   -0.158911   -1.855834
C      5.062225    0.096055   -1.256746
C      4.153905   -0.960151   -1.133747
C      2.902245   -0.757283   -0.546186
C      2.537954    0.509216   -0.060686
C      3.449464    1.573596   -0.190548
C      4.700343    1.369604   -0.780794
C      1.198257    0.709181    0.543403
C      0.991117    1.641818    1.564579
C     -0.287225    1.802652    2.090005
O     -0.459667    2.646298    3.010984
C     -1.355674    1.026182    1.586615
C     -2.674888    1.156931    2.063804
C     -3.711703    0.377941    1.522588
C     -3.435256   -0.555423    0.490114
C     -2.102589   -0.713470    0.021530
C     -1.070468    0.091098    0.564478
O      0.175062   -0.019215    0.105269
O     -1.855729   -1.673174   -0.978847
C     -0.590779   -2.134009   -1.440172
O     -4.512355   -1.301165   -0.029364
C     -4.501673   -2.198698   -1.134865
O     -5.000314    0.586500    2.057849
C     -6.208334   -0.071142    1.690577
O     -2.958886    2.073616    3.081943
H      6.939468    1.635642   -2.705909
H      7.644666    1.234765   -1.075815
H      8.190660    0.346692   -2.547014
H      4.419758   -1.945154   -1.496183
H      2.226554   -1.596533   -0.455877
H      3.189683    2.570991    0.138853
H      5.375292    2.210033   -0.867550
H      1.811388    2.224733    1.965201
H      0.006798   -2.520197   -0.588366
H     -0.054957   -1.324855   -1.978589
H     -0.754033   -2.967124   -2.154302
H     -4.141105   -1.681375   -2.049022
H     -3.881413   -3.089933   -0.903691
H     -5.538518   -2.545555   -1.321871
H     -6.451776    0.135447    0.627137
H     -6.128468   -1.161989    1.881068
H     -7.034577    0.326552    2.314409
H     -3.887364    2.208513    3.462816
