30

C     -4.603046    0.990626   -0.419457
C     -3.360385    0.288933    0.036480
N     -2.155251    0.652708   -0.470953
N     -1.019390    0.056196   -0.098576
C     -1.053807   -0.947843    0.835799
O      0.007410   -1.513747    1.216557
N     -2.244695   -1.337793    1.363457
C     -3.402132   -0.739557    0.981931
O     -4.498527   -1.112292    1.481219
C      0.238957    0.533458   -0.693816
C      1.061479    1.338218    0.313990
C      2.385773    0.617078    0.360302
C      2.349389   -0.249145   -0.893180
O      1.003411   -0.555484   -1.164162
C      3.150094   -1.547851   -0.729202
O      4.500614   -1.271996   -0.471245
O      3.463218    1.515467    0.312738
H     -4.357303    1.768825   -1.172983
H     -5.098482    1.478141    0.446365
H     -5.300887    0.259276   -0.878748
H     -2.269425   -2.105179    2.073663
H      0.008145    1.185678   -1.567726
H      0.594001    1.365424    1.323086
H      1.186468    2.383164   -0.048559
H      2.438967   -0.016309    1.277633
H      2.760356    0.317567   -1.760795
H      3.055289   -2.166211   -1.650707
H      2.737554   -2.141942    0.114246
H      4.898662   -0.974230   -1.330661
H      3.523543    1.928821    1.213303
