28

C      2.365758   -0.639787    0.933981
C      0.978079   -0.649847    0.792488
C      0.330628    0.299038   -0.017349
C      1.104984    1.269849   -0.697791
C      2.501142    1.277925   -0.532438
C      3.142259    0.325680    0.278254
N      4.573687    0.335691    0.433590
O      5.271768    1.194892   -0.143963
O      5.197952   -0.602478    1.223620
N      0.498909    2.230156   -1.581830
O     -0.492163    1.919160   -2.274296
O      1.110480    3.441904   -1.808197
N     -1.107115    0.334965   -0.079533
C     -1.948162   -0.867934   -0.057729
C     -2.665401   -0.999553    1.294190
O     -3.530042    0.082936    1.519989
C     -2.943495   -0.835270   -1.189625
O     -3.513071    0.242886   -1.506946
O     -3.285119   -2.005311   -1.862498
H      2.830039   -1.382396    1.569908
H      0.409374   -1.384981    1.345394
H      3.092123    2.017414   -1.057415
H     -1.576445    1.268870   -0.102326
H     -1.312267   -1.768546   -0.200317
H     -3.262442   -1.936667    1.301501
H     -1.918221   -1.082103    2.116373
H     -2.983422    0.809172    1.918853
H     -2.869816   -2.895665   -1.615887
