8

C      0.518399   -0.225921    0.472457
O      0.211247   -0.989892    1.424760
C     -0.518402    0.225929   -0.472453
O     -0.211251    0.989905   -1.424752
O     -1.843545   -0.179986   -0.330458
O      1.843547    0.179978    0.330453
H     -2.135746   -0.793764    0.420389
H      2.135752    0.793751   -0.420397
