15

C     -1.013827   -0.433582    0.561554
C      0.372200    0.232502    0.617122
C      1.376381   -0.575255   -0.157972
O      2.098602   -1.419356    0.437024
O      1.480756   -0.424944   -1.538158
N      0.312198    1.599097    0.095648
N     -1.515680   -0.508395   -0.809482
H     -0.940281   -1.461061    0.982508
H     -1.730077    0.136516    1.194951
H      0.693433    0.269699    1.683567
H      2.142456   -0.975457   -2.072176
H      1.254593    2.037994    0.215320
H     -0.341428    2.152290    0.696720
H     -1.799732    0.452406   -1.109485
H     -2.389597   -1.082455   -0.797142
