29

C     -3.099548    0.890236   -0.806641
C     -2.452636   -0.133001    0.139795
C     -3.104928   -0.040753    1.525766
C     -0.923009    0.073760    0.262839
C     -0.144749   -0.229374   -1.036064
C      1.329279    0.053034   -0.854145
O      1.878390    0.931382   -1.573642
N      2.104981   -0.662326    0.121174
C      3.516500   -0.374130    0.360782
C      3.660894    0.919839    1.102074
O      3.358844    0.977274    2.323005
O      4.098053    2.069863    0.450919
N     -0.363284   -1.612272   -1.469013
H     -2.770181    0.722266   -1.852203
H     -2.839107    1.926848   -0.502950
H     -4.205289    0.782852   -0.792006
H     -2.655358   -1.152670   -0.254953
H     -4.198383   -0.222823    1.450590
H     -2.678016   -0.809953    2.204267
H     -2.937817    0.963682    1.971263
H     -0.718681    1.122532    0.574601
H     -0.539218   -0.587746    1.070126
H     -0.518709    0.445726   -1.835394
H      1.657511   -1.419804    0.683785
H      3.960341   -1.188489    0.973223
H      4.067394   -0.342028   -0.603576
H      4.339260    2.058768   -0.532765
H      0.172197   -1.777458   -2.352564
H      0.005271   -2.274027   -0.748292
