38

C     -5.839021    0.566868   -1.947655
C     -5.366760   -0.703578   -2.283364
C     -4.157874   -1.165289   -1.753681
C     -3.402501   -0.354067   -0.886092
C     -3.895304    0.920320   -0.545542
C     -5.105605    1.376327   -1.077616
C     -2.125303   -0.856758   -0.325475
O     -1.932840   -2.101348   -0.246621
N     -1.098336    0.049004    0.113661
C      0.088763   -0.417983    0.838725
C      1.148921    0.703586    0.904961
C      2.465540    0.297124    1.598859
C      3.256849   -0.792531    0.855381
N      3.529008   -0.412352   -0.531131
C      4.425796    0.437353   -0.945027
N      4.529704    0.702798   -2.343646
N      5.315466    1.104054   -0.039519
C     -0.311587   -0.864171    2.221494
O     -0.979202   -0.095207    2.963117
O      0.065460   -2.115279    2.701610
H     -6.775774    0.921968   -2.357401
H     -5.937706   -1.331853   -2.954835
H     -3.808406   -2.152167   -2.030985
H     -3.364508    1.557501    0.149008
H     -5.478551    2.356387   -0.809277
H     -1.173531    1.060101   -0.139069
H      0.517844   -1.273985    0.276670
H      0.722357    1.572596    1.453210
H      1.372525    1.055521   -0.125619
H      2.255955   -0.051468    2.632575
H      3.097953    1.204521    1.693752
H      4.204396   -1.015404    1.390299
H      2.676541   -1.737162    0.856104
H      3.893453    0.228444   -3.022624
H      5.241379    1.375675   -2.705090
H      6.004206    1.797148   -0.406950
H      5.331403    0.908769    0.984260
H      0.609291   -2.755464    2.135854
