9

C      0.391721    0.573511   -0.237740
C      1.462329   -0.418354   -0.110486
N      2.308341   -1.201672   -0.010412
C     -0.788500    0.152944    0.579327
O     -0.941540    0.608235    1.743388
O     -1.702725   -0.770035    0.079510
H      0.098607    0.660857   -1.304843
H      0.765532    1.560729    0.107720
H     -1.593765   -1.166216   -0.846464
