25

C      0.111004    0.007246   -0.526750
C     -1.297359    0.588955   -0.330809
C     -2.239108    0.243907   -1.505655
C     -2.499139   -1.238133   -1.597061
O     -2.126688   -1.874488   -2.617963
O     -3.142408   -1.923403   -0.568660
N     -3.512788    0.956471   -1.385078
C      1.039391    0.411146    0.623493
N      2.377730   -0.147983    0.434298
C      3.427384    0.087923    1.380207
O      3.215438    0.790023    2.405515
N      4.721830   -0.472503    1.165584
H      0.535721    0.379504   -1.484880
H      0.055331   -1.102234   -0.571121
H     -1.725421    0.215625    0.625131
H     -1.216175    1.695674   -0.253925
H     -1.751934    0.574994   -2.451232
H     -3.456325   -1.451726    0.270312
H     -3.907796    0.813602   -0.426911
H     -3.332906    1.981420   -1.492794
H      0.621468    0.038808    1.584326
H      1.111241    1.519795    0.670042
H      2.586379   -0.734657   -0.405655
H      5.490375   -0.303602    1.851964
H      4.914756   -1.056363    0.321933
