50

C     -7.730244   -0.612170    0.524046
C     -6.585579   -0.849067   -0.460181
C     -5.317184   -1.397335    0.216724
C     -4.684511   -0.458419    1.263261
C     -4.301122    0.940995    0.741618
C     -3.345206    0.945362   -0.464844
C     -1.986608    0.300738   -0.152357
C     -1.011878    0.481526   -1.326062
C      0.308657   -0.279701   -1.125469
C      1.214815    0.377598   -0.070142
C      2.533289   -0.385941    0.133990
C      3.507217   -0.221443   -1.040496
O      4.734552   -0.860017   -0.741359
C      5.686979    0.078955   -0.284257
C      6.936335   -0.662209    0.208306
C      8.025703    0.334401    0.624892
O      9.198025   -0.345352    0.985983
O      6.606520   -1.472733    1.307262
H     -7.925252   -1.528006    1.121489
H     -7.493278    0.231705    1.204682
H     -8.652284   -0.353216   -0.037819
H     -6.924000   -1.593210   -1.213301
H     -6.362853    0.089376   -1.009609
H     -5.566045   -2.359401    0.715447
H     -4.567174   -1.638299   -0.565963
H     -5.385081   -0.337165    2.116508
H     -3.782536   -0.952640    1.682325
H     -3.828107    1.506443    1.573917
H     -5.222559    1.498906    0.471451
H     -3.179668    2.005032   -0.759075
H     -3.817759    0.437988   -1.332293
H     -2.126224   -0.785076    0.036022
H     -1.566304    0.772034    0.760978
H     -1.492731    0.093814   -2.251171
H     -0.803390    1.562600   -1.483667
H      0.096928   -1.334241   -0.843015
H      0.836420   -0.292158   -2.102052
H      0.686312    0.393836    0.905881
H      1.429689    1.430939   -0.354604
H      3.016811    0.004311    1.055288
H      2.326165   -1.465749    0.300076
H      3.083885   -0.723993   -1.934047
H      3.619590    0.856941   -1.307995
H      5.279857    0.689813    0.554778
H      5.975914    0.754304   -1.121731
H      7.338873   -1.286278   -0.624573
H      7.669299    0.973127    1.466196
H      8.263172    1.002956   -0.230206
H      9.074747   -0.651746    1.922199
H      6.207825   -2.305839    0.942967
