21

C      0.545548    1.010242    0.490154
C      1.795583    1.363982   -0.026933
C      2.662554    0.375203   -0.511560
C      2.271901   -0.967302   -0.477736
C      1.022404   -1.323712    0.038747
C      0.153110   -0.337841    0.534336
C     -1.203015   -0.720816    1.061465
C     -2.177088   -0.878618   -0.070956
O     -2.331909   -2.014090   -0.595215
C     -2.921971    0.270265   -0.610399
O     -2.774946    1.419110   -0.113629
O     -3.795874    0.087241   -1.677809
O      3.910212    0.715843   -1.029018
H     -0.114631    1.786621    0.856082
H      2.088240    2.405928   -0.052563
H      2.936055   -1.734711   -0.854594
H      0.731076   -2.366790    0.051353
H     -1.129432   -1.677008    1.624487
H     -1.573159    0.040920    1.781705
H     -4.316744    0.866306   -2.062578
H      4.222087    1.679226   -1.067947
