23

C     -4.535597   -0.045421    0.090877
C     -3.111246    0.220529    0.454579
O     -2.853968    0.973516    1.432304
N     -2.056600   -0.454652   -0.248162
C     -0.660573   -0.139666   -0.105775
C     -0.222913    1.178720    0.110921
C      1.141863    1.460354    0.222008
C      2.091714    0.439528    0.105632
C      1.656703   -0.877696   -0.132794
C      0.291917   -1.159440   -0.244966
O      3.448634    0.773982    0.227170
C      4.518534   -0.160466    0.129407
H     -5.185041    0.785474    0.439402
H     -4.867650   -0.991800    0.565910
H     -4.634140   -0.135083   -1.011284
H     -2.316840   -1.278888   -0.836230
H     -0.929610    1.995531    0.168795
H      1.464261    2.480086    0.390876
H      2.363748   -1.689535   -0.235081
H     -0.025788   -2.177877   -0.430821
H      5.480660    0.374448    0.265555
H      4.516698   -0.639546   -0.872444
H      4.425234   -0.932097    0.922581
