27

C      0.841442    0.854809    0.130573
C      1.714402   -0.267121   -0.456669
C      3.190726   -0.144158   -0.040119
N      3.384687   -0.346690    1.395577
C     -0.530092    1.001080   -0.566367
C     -1.540724   -0.164712   -0.336402
C     -2.922603    0.217070   -0.928640
F     -2.826564    0.440319   -2.291783
F     -3.428226    1.358037   -0.327678
C     -1.709596   -0.423539    1.149238
O     -1.562870   -1.583406    1.622681
O     -2.038843    0.625695    2.004081
N     -1.050809   -1.382676   -1.002263
H      0.702273    0.695570    1.220312
H      1.376457    1.822359    0.009773
H      1.332166   -1.256788   -0.129632
H      1.667908   -0.227781   -1.566784
H      3.590659    0.850929   -0.333651
H      3.779214   -0.911409   -0.587643
H      2.953387    0.449973    1.916797
H      2.902655   -1.227193    1.689450
H     -0.365585    1.147833   -1.656590
H     -0.980928    1.947180   -0.193663
H     -3.647213   -0.609446   -0.763329
H     -2.155847    0.469507    2.998018
H     -0.905531   -1.195710   -2.021428
H     -1.770545   -2.139731   -0.933860
