46

C     -7.432134   -1.904796   -0.289013
O     -7.310000   -0.604785    0.279064
C     -6.100776    0.096329    0.413763
C     -6.120970    1.376751    0.994085
C     -4.933553    2.099153    1.135097
C     -3.719323    1.558301    0.709005
C     -3.674041    0.272074    0.139616
C     -4.872216   -0.444998   -0.015472
C     -2.410718   -0.342078   -0.339765
C     -1.195102    0.022048    0.092987
C      0.038049   -0.615953   -0.395910
O     -0.008784   -1.527975   -1.267558
O      1.266768   -0.193187    0.123652
C      2.526803   -0.719204   -0.299660
C      3.579598   -0.390399    0.782899
C      5.023444   -0.434897    0.223742
C      5.198787    0.631077   -0.896650
C      3.878110    1.025228   -1.603735
C      2.903102   -0.164340   -1.705101
O      3.473390   -1.193167   -2.476500
O      4.146974    1.527225   -2.887307
C      6.024186   -0.158859    1.327580
O      7.145615   -0.735447    1.324811
O      5.742063    0.785626    2.311604
O      5.275725   -1.709742   -0.325772
O     -7.314023    1.950394    1.433639
H     -6.840302   -2.636464    0.300563
H     -7.087384   -1.894357   -1.344590
H     -8.498018   -2.210945   -0.267029
H     -4.953487    3.089879    1.571541
H     -2.828671    2.162931    0.807257
H     -4.839634   -1.429303   -0.463877
H     -2.491909   -1.158136   -1.048814
H     -1.084058    0.790291    0.845237
H      2.444684   -1.828922   -0.356439
H      3.375664    0.624614    1.192482
H      3.471079   -1.108908    1.625545
H      5.923872    0.249921   -1.650179
H      5.641174    1.566025   -0.484373
H      3.372995    1.819612   -1.004181
H      1.974353    0.193303   -2.209150
H      3.369347   -0.936544   -3.429954
H      4.564928    2.419443   -2.763592
H      6.414797    0.995142    3.039331
H      5.143512   -2.384939    0.391436
H     -8.203914    1.472978    1.355465
