19

C     -2.619545   -0.240752    0.132549
C     -1.765716   -1.333332   -0.079726
C     -0.395398   -1.090628   -0.151405
C      0.132507    0.176185   -0.017975
C     -0.711732    1.294835    0.132219
C     -2.096044    1.063014    0.238989
O     -0.251034    2.609899    0.126963
C      1.515842    0.018776   -0.066515
C      1.738608   -1.340253   -0.267158
N      0.569195   -2.010473   -0.315535
C      2.572476    1.002659    0.212484
O      3.768105    0.750875   -0.091858
H     -3.687988   -0.398926    0.201026
H     -2.160997   -2.336803   -0.171573
H     -2.772457    1.898087    0.369924
H      0.659266    2.869144   -0.222633
H      2.707328   -1.820347   -0.321820
H      0.445424   -3.041633   -0.425234
H      2.352157    1.929671    0.717276
