43

C      4.305771   -2.962309   -0.652926
C      2.823729   -2.853965   -1.054164
C      2.713282   -2.760866   -2.580926
C      2.135493   -1.627829   -0.398714
C      1.909597   -1.757215    1.127827
C      1.492500   -0.441580    1.744931
O      1.553244   -0.300398    2.996089
N      1.006433    0.647484    0.947137
C     -0.376490    1.133818    1.040091
C     -0.746667    1.946741   -0.227333
C     -1.929049    2.918243   -0.031437
C     -3.304781    2.237023   -0.105802
C     -4.455599    3.240600    0.041701
N     -4.619616    4.037233   -1.170276
C     -1.328895   -0.016882    1.247973
O     -1.535152   -0.854477    0.328606
O     -1.945117   -0.178831    2.483195
N      0.881655   -2.765576    1.401696
H      4.414036   -3.131325    0.434791
H      4.854482   -2.038371   -0.931857
H      4.784665   -3.822458   -1.167349
H      2.312547   -3.789092   -0.752252
H      3.188025   -1.827113   -2.957523
H      1.644779   -2.771925   -2.898256
H      3.214808   -3.628873   -3.059010
H      2.761726   -0.732246   -0.610219
H      1.143402   -1.461542   -0.874542
H      2.858092   -2.054805    1.626890
H      1.691908    1.127895    0.318765
H     -0.433086    1.805060    1.927231
H     -0.933671    1.278548   -1.096657
H      0.127693    2.575761   -0.503717
H     -1.823747    3.460945    0.935052
H     -1.868361    3.673480   -0.843445
H     -3.402971    1.690764   -1.067351
H     -3.401868    1.504463    0.717028
H     -4.285468    3.901620    0.921953
H     -5.396165    2.677220    0.224222
H     -5.503049    4.585868   -1.068967
H     -3.854962    4.748801   -1.202561
H     -2.592844   -0.941894    2.647516
H      0.640931   -2.754122    2.420177
H      1.278757   -3.717869    1.215210
