37

C      2.747824   -1.250106   -0.454187
C      3.977277   -1.600899   -1.020172
C      5.068778   -0.731258   -0.926912
C      4.925847    0.495370   -0.264012
C      3.697624    0.848277    0.303376
C      2.600578   -0.025024    0.217007
C      1.267090    0.360723    0.805102
C      0.296012    0.885098   -0.269161
C     -1.076106    1.035232    0.335104
O     -1.358573    2.071649    0.997302
N     -2.034049   -0.026107    0.211752
C     -3.349793    0.030732    0.857062
C     -4.355564   -0.876848    0.129601
C     -4.590883   -0.406764   -1.276497
O     -5.407892    0.525771   -1.496577
O     -3.887129   -0.964027   -2.340405
C     -3.227910   -0.389643    2.296718
O     -2.533734   -1.394781    2.605158
O     -3.912447    0.297033    3.295644
N      0.754305    2.172608   -0.798924
O      6.287609   -1.093305   -1.496144
H      1.909997   -1.931245   -0.539596
H      4.081308   -2.548109   -1.534013
H      5.764258    1.176437   -0.190388
H      3.600873    1.802995    0.805427
H      0.827440   -0.535006    1.298510
H      1.401500    1.130407    1.597600
H      0.237754    0.149372   -1.103882
H     -1.733972   -0.914745   -0.250170
H     -3.735085    1.074196    0.816033
H     -5.325647   -0.868455    0.674050
H     -3.988240   -1.926366    0.117061
H     -3.215216   -1.707819   -2.194813
H     -4.497256    1.095486    3.080175
H      0.052587    2.508633   -1.498803
H      1.634464    2.015050   -1.340948
H      7.096370   -0.484561   -1.447076
