47

C      2.462437    1.717411    2.067641
C      2.493348    1.392489    0.567422
C      3.805820    1.901396   -0.052798
C      2.235480   -0.120050    0.318957
C      2.111036   -0.431823   -1.163279
O      3.138994   -0.778382   -1.808024
N      0.862107   -0.280170   -1.868098
C      0.783319   -0.324760   -3.319688
C     -0.693555   -0.178716   -3.661156
C     -1.355797    0.368178   -2.400839
C     -0.432963   -0.024187   -1.246281
C     -0.949374   -1.264732   -0.549714
O     -0.556577   -2.398691   -0.940137
N     -1.935078   -1.182303    0.497856
C     -2.593505   -2.360925    1.038374
C     -3.571574   -1.846728    2.087220
C     -3.732738   -0.355514    1.805421
C     -2.473004    0.057947    1.043388
C     -1.471213    0.702200    1.966612
O     -0.891535    0.014932    2.849218
O     -1.196543    2.063613    1.874264
N      3.260805   -0.952183    0.961061
H      3.302714    1.219867    2.597317
H      2.544019    2.814394    2.223314
H      1.506570    1.378451    2.517467
H      1.664193    1.963389    0.094226
H      3.893178    2.998543    0.098684
H      4.687501    1.417032    0.416274
H      3.824074    1.714988   -1.146327
H      1.269969   -0.373050    0.805071
H      1.365789    0.518787   -3.749877
H      1.178960   -1.291315   -3.700607
H     -1.122029   -1.177138   -3.899573
H     -0.845901    0.501646   -4.526937
H     -1.404431    1.477550   -2.469335
H     -2.391578   -0.022045   -2.285907
H     -0.348203    0.824444   -0.538408
H     -1.847088   -3.044478    1.498103
H     -3.140323   -2.888011    0.226401
H     -3.138538   -1.986676    3.102130
H     -4.546554   -2.377564    2.029258
H     -4.621081   -0.205134    1.152685
H     -3.884838    0.222035    2.744323
H     -2.750252    0.752799    0.220956
H     -1.649201    2.646350    1.180561
H      4.176820   -0.848512    0.468523
H      2.976341   -1.955352    0.874255
