39

C      2.445899    2.606090   -0.477682
C      1.935761    1.167920   -0.593981
C      2.312555    0.391031    0.639243
O      1.634927    0.527483    1.695036
N      3.461505   -0.466440    0.627563
C      3.848079   -1.236914    1.807905
C      5.085726   -2.036341    1.534174
O      4.994919   -3.259520    1.249846
O      6.336861   -1.427489    1.550115
N      0.481357    1.150160   -0.778884
C     -0.219660   -0.037236   -1.179366
O      0.417408   -1.105647   -1.391794
C     -1.727340   -0.028122   -1.280426
C     -2.338705   -0.649413   -0.002454
C     -3.847603   -0.377871    0.225662
C     -4.154012    1.110750    0.443784
C     -4.739377   -0.965131   -0.875471
N     -2.170411   -0.747361   -2.478378
H      2.178854    3.175816   -1.393216
H      3.551996    2.612314   -0.371106
H      1.995718    3.112458    0.403372
H      2.414802    0.710904   -1.487874
H      4.027240   -0.536944   -0.249302
H      4.042839   -0.545387    2.655333
H      3.017187   -1.917683    2.094374
H      6.435015   -0.439997    1.753264
H     -0.071096    2.018486   -0.592930
H     -2.056808    1.027284   -1.371021
H     -1.791670   -0.257569    0.884602
H     -2.166345   -1.748413   -0.009766
H     -4.118309   -0.901668    1.169808
H     -5.195632    1.229661    0.811694
H     -4.055586    1.686892   -0.499624
H     -3.468661    1.540085    1.205189
H     -4.650134   -0.382766   -1.816214
H     -4.466443   -2.023981   -1.070939
H     -5.802192   -0.936146   -0.553151
H     -1.738721   -0.299852   -3.319861
H     -1.839943   -1.739442   -2.441902
