36

C     -4.965662    0.081660   -1.115313
C     -3.753418    1.010411   -1.013860
C     -2.604982    0.288665   -0.360587
O     -2.277944    0.589496    0.819936
N     -1.903170   -0.750373   -1.061274
C     -0.765599   -1.456654   -0.464462
C     -0.420981   -2.706893   -1.277495
C      0.429871   -0.544708   -0.395983
O      0.763550    0.121599   -1.414120
N      1.203830   -0.456422    0.809514
C      2.387044    0.403429    0.913238
C      2.790320    0.581818    2.388317
C      3.884403    1.594275    2.542426
O      3.606428    2.822574    2.584148
O      5.210916    1.179141    2.599522
C      3.516966   -0.190659    0.118106
O      3.833482   -1.401683    0.269582
O      4.231065    0.606779   -0.770561
N     -3.362191    1.477980   -2.343961
H     -5.829654    0.631521   -1.544794
H     -4.740245   -0.789930   -1.766633
H     -5.253487   -0.284512   -0.106600
H     -4.036695    1.888182   -0.388242
H     -2.216050   -1.001162   -2.026998
H     -1.048216   -1.788992    0.558633
H     -1.298667   -3.386700   -1.313436
H      0.424449   -3.250414   -0.803274
H     -0.136936   -2.434152   -2.316947
H      0.914063   -1.032816    1.632391
H      2.133702    1.405756    0.499967
H      1.906987    0.921661    2.972004
H      3.121100   -0.389573    2.816883
H      5.962207    1.852735    2.691257
H      5.002036    0.225676   -1.305775
H     -2.559068    2.140003   -2.235845
H     -4.149456    2.042285   -2.739399
