46

C      2.703949   -3.024592    0.105019
C      3.016473   -1.621764    0.533291
C      3.984996   -0.871886    0.016116
C      3.960378    0.427645    0.652094
O      4.735725    1.378599    0.367964
C      2.895327    0.497695    1.681122
C      2.244544   -0.899009    1.601754
O      0.873791   -0.806910    1.218177
C     -0.128890   -0.333521    2.070544
O      0.133199   -0.023074    3.264169
C     -1.540271   -0.241926    1.576065
C     -1.679973    0.345654    0.164092
C     -2.123895    1.165810    1.382678
C     -3.625532    1.297700    1.678968
C     -1.248121    2.387947    1.695944
C     -2.768589   -0.283189   -0.670139
C     -3.325486    0.344343   -1.725198
C     -4.412492   -0.357214   -2.496180
C     -2.879601    1.726154   -2.140542
C      4.893472   -1.253600   -1.118615
C      4.234075   -0.984571   -2.399912
C      3.689975   -0.763950   -3.452773
H      1.838847   -3.418788    0.678426
H      3.579446   -3.680676    0.292459
H      2.450955   -3.042528   -0.975761
H      3.340959    0.671900    2.683812
H      2.178182    1.308353    1.430180
H      2.344921   -1.445226    2.565901
H     -2.250274   -1.053029    1.847320
H     -0.731662    0.644754   -0.334168
H     -4.070460    2.063363    1.010134
H     -3.765188    1.621406    2.731461
H     -4.173140    0.341558    1.539170
H     -0.204849    2.267833    1.335186
H     -1.678751    3.284573    1.203125
H     -1.229274    2.558621    2.792559
H     -3.107261   -1.282899   -0.408652
H     -5.267321   -0.577478   -1.822109
H     -4.783909    0.263300   -3.338079
H     -4.022518   -1.310482   -2.911791
H     -3.451767    2.092672   -3.017897
H     -3.033429    2.441797   -1.306012
H     -1.803510    1.708658   -2.413539
H      5.162152   -2.328936   -1.061632
H      5.833036   -0.664759   -1.065680
H      3.211758   -0.570327   -4.376711
