45

C     -3.337453   -0.339811   -1.495503
C     -2.295661   -1.137769   -0.690287
C     -1.080463   -0.297472   -0.280115
N     -0.055335   -1.164119    0.316732
C      1.027932   -0.385103    0.935347
C      1.855961    0.350625   -0.091185
O      1.685696    1.550657   -0.250294
C      2.848169   -0.390849   -0.959153
C      4.288017    0.199737   -0.879806
C      5.010835   -0.007575    0.481909
C      4.516264    0.949655    1.583336
O      5.397685    0.935410    2.673982
O      4.881827   -1.341469    0.905164
O      5.077568   -0.343588   -1.909907
O      2.389723   -0.393805   -2.288776
C     -3.940892    0.877338   -0.765448
C     -4.672918    0.524323    0.545705
C     -5.229016    1.769540    1.195850
O     -4.814567    2.115002    2.333785
O     -6.193498    2.550546    0.562029
N     -5.733612   -0.457590    0.305617
H     -2.863189    0.016331   -2.436049
H     -4.157120   -1.028615   -1.793815
H     -1.948189   -1.977910   -1.330585
H     -2.763136   -1.591451    0.208848
H     -0.670209    0.219804   -1.176280
H     -1.404369    0.464467    0.461778
H      0.348416   -1.778125   -0.429741
H      1.687544   -1.079011    1.498770
H      0.613051    0.328761    1.681196
H      2.886071   -1.452086   -0.632610
H      4.227643    1.292669   -1.077211
H      6.089249    0.220691    0.305550
H      3.521354    0.629971    1.949181
H      4.419128    1.987030    1.189115
H      6.180689    1.488436    2.415327
H      5.616259   -1.513590    1.550697
H      5.128398   -1.324545   -1.762546
H      2.406680    0.543698   -2.617006
H     -3.142524    1.621933   -0.558796
H     -4.654181    1.365702   -1.464177
H     -3.937226    0.077193    1.248867
H     -6.554130    2.315688   -0.354180
H     -6.194438   -0.684828    1.217028
H     -6.462034   -0.046994   -0.322343
