47

C     -0.889934    0.479196   -1.865661
C     -0.626666    0.010033   -0.432385
C     -1.674784   -1.001857   -0.030861
O     -1.481703   -2.218701   -0.303557
N     -2.926579   -0.604110    0.564358
C     -4.096968   -1.464597    0.533129
C     -5.280484   -0.567975    0.865384
C     -4.693929    0.678532    1.521527
C     -3.215902    0.713911    1.118058
C     -2.344616    0.999098    2.309907
O     -1.856598    2.149436    2.471973
O     -2.109846    0.005814    3.256592
N      0.713815   -0.575309   -0.324226
C      1.346382   -0.792584    0.949046
O      0.723884   -0.519595    2.011279
C      2.770695   -1.298925    1.050881
C      3.814625   -0.184092    0.821948
C      3.701402    0.499901   -0.519964
C      4.380522   -0.010010   -1.639572
C      4.250122    0.610243   -2.885992
C      3.445312    1.744343   -3.023718
C      2.772769    2.263015   -1.914273
C      2.900962    1.646684   -0.666072
N      3.015529   -2.455918    0.183772
H     -0.844413   -0.377033   -2.572816
H     -1.892651    0.952343   -1.937210
H     -0.127259    1.230008   -2.163080
H     -0.668061    0.905025    0.220434
H     -3.986384   -2.268750    1.292449
H     -4.226655   -1.913129   -0.476199
H     -5.999311   -1.082288    1.539881
H     -5.804094   -0.280056   -0.072886
H     -4.818592    0.594744    2.625004
H     -5.222778    1.593844    1.176757
H     -3.063772    1.485619    0.330959
H     -1.534244    0.189196    4.069667
H      1.240177   -0.789385   -1.200092
H      2.921622   -1.648115    2.097357
H      3.713135    0.573555    1.630308
H      4.833525   -0.616137    0.932230
H      5.005100   -0.890002   -1.548010
H      4.771738    0.210230   -3.745827
H      3.343351    2.221441   -3.989820
H      2.148119    3.140315   -2.022137
H      2.365914    2.053805    0.183038
H      2.305353   -3.193403    0.399413
H      2.902172   -2.198361   -0.820995
