41

C      2.585958    1.803383    1.568721
C      1.188867    1.824640    1.588372
C      0.452969    0.756259    1.067023
C      1.138516   -0.344064    0.519145
C      2.536427   -0.367572    0.498962
C      3.277189    0.703543    1.036221
C      4.760889    0.732791    1.028529
C      5.526900   -0.361833    0.926097
C      6.996358   -0.286348    0.934288
O      7.671102   -1.347206    0.857130
O      7.649139    0.940670    1.024268
O     -0.948360    0.830215    1.111794
C     -1.837755   -0.153207    0.582083
C     -3.295892    0.227516    0.971261
C     -4.083655    0.716943   -0.263713
C     -4.012902   -0.322591   -1.405232
C     -2.636597   -1.046104   -1.417349
O     -1.650099   -0.222427   -0.825012
C     -2.205010   -1.388890   -2.849480
O     -1.021576   -2.141515   -2.836327
O     -5.043415   -1.263265   -1.238287
O     -3.547871    1.936430   -0.714163
O     -3.935551   -0.892074    1.531392
H      3.129001    2.646284    1.979022
H      0.674133    2.678930    2.009739
H      0.603679   -1.185054    0.100240
H      3.025189   -1.215741    0.040576
H      5.239434    1.697242    1.154798
H      5.080894   -1.344660    0.860224
H      8.660844    0.992222    1.029299
H     -1.577113   -1.133824    1.043699
H     -3.273442    1.044050    1.731787
H     -5.152797    0.874536    0.014610
H     -4.174910    0.225549   -2.364449
H     -2.716634   -2.013011   -0.863380
H     -2.067176   -0.458658   -3.447803
H     -2.995891   -1.994549   -3.340701
H     -0.275216   -1.499837   -2.706167
H     -5.154366   -1.726491   -2.109190
H     -3.846198    2.636016   -0.075735
H     -4.745065   -0.558298    1.999738
