41

C     -0.476072    2.170306    0.748702
C     -0.789997    0.854321    1.465927
C     -0.675826   -0.332893    0.474628
C      0.365582   -0.021832   -0.648343
O      1.399303    0.808784   -0.146782
C      0.961031    2.138743    0.132091
C      1.028396    2.970950   -1.137705
O      1.636362    2.531151   -2.149970
O      0.473743    4.248404   -1.189518
O      1.869842    2.673844    1.064682
C      0.978884   -1.288389   -1.319091
C      2.158883   -1.992175   -0.571578
C      3.526176   -1.306601   -0.794588
O      4.559976   -2.109261   -0.290878
O      1.890134   -2.174368    0.796184
O     -0.030340   -2.213926   -1.644215
N     -1.993863   -0.624149   -0.107503
C     -3.011818   -1.327128    0.619844
O     -2.805223   -1.703447    1.805517
C     -4.347469   -1.575894   -0.010131
O     -5.168516   -0.451815    0.147597
O      0.107108    0.685770    2.534558
H     -0.589975    3.016912    1.460719
H     -1.238292    2.317980   -0.049608
H     -1.826875    0.926355    1.870763
H     -0.349555   -1.227324    1.042730
H     -0.158922    0.519152   -1.471381
H      0.008008    4.659587   -0.389951
H      1.631923    3.624336    1.229014
H      1.390550   -0.944267   -2.293550
H      2.256931   -3.006032   -1.019459
H      3.565158   -0.299964   -0.325396
H      3.698753   -1.171299   -1.883400
H      4.580383   -1.966278    0.691344
H      2.047755   -1.309439    1.256185
H     -0.253998   -2.723866   -0.822799
H     -2.207431   -0.333964   -1.088734
H     -4.834384   -2.446185    0.479071
H     -4.223540   -1.823338   -1.088703
H     -4.860972    0.220465   -0.515587
H     -0.291811    0.006772    3.139314
