50

C      5.524041   -1.156317   -1.232298
C      6.208774    0.005306   -0.549719
C      5.672317    0.604089    0.537176
C      4.363295    0.194280    1.163600
N      3.232865    0.599872    0.329190
C      1.886348    0.246144    0.671817
C      0.811662    0.614513   -0.130705
C     -0.446043    0.259384    0.217691
N     -0.720699   -0.462533    1.331083
C      0.325738   -0.828644    2.130538
N      1.609935   -0.476372    1.800776
N     -1.309710    0.703139   -0.705460
C     -0.516663    1.317976   -1.620635
N      0.805721    1.288878   -1.296291
C     -2.754602    0.481019   -0.788956
C     -3.040672   -0.941281   -1.330359
C     -4.394866   -1.491242   -0.805000
C     -5.390636   -0.350562   -0.502834
C     -4.741182    0.746186    0.406471
O     -3.327869    0.626160    0.496355
C     -5.309286    0.697447    1.833494
O     -6.682577    0.984200    1.837535
O     -5.818935    0.242801   -1.703138
O     -4.185840   -2.226622    0.374976
O     -2.992347   -0.958049   -2.735961
C      7.522398    0.517683   -1.094097
O      8.569571    0.188381   -0.221610
H      6.113827   -1.525006   -2.097003
H      4.526556   -0.847307   -1.607374
H      5.407021   -2.000064   -0.520706
H      6.200567    1.434418    0.998822
H      4.346059   -0.904412    1.326613
H      4.271230    0.686765    2.155254
H      3.401740    1.170690   -0.530977
H      0.140235   -1.402400    3.027972
H     -0.892562    1.775334   -2.526778
H     -3.178009    1.247453   -1.482418
H     -2.238552   -1.625786   -0.975610
H     -4.848939   -2.163189   -1.571748
H     -6.279542   -0.794914    0.005325
H     -4.983012    1.756803    0.002489
H     -5.151382   -0.313938    2.265184
H     -4.767875    1.424602    2.481290
H     -6.769029    1.964718    1.708064
H     -6.451573   -0.391215   -2.132073
H     -3.821279   -3.109867    0.104625
H     -3.728962   -0.385534   -3.073028
H      7.740929    0.065258   -2.083744
H      7.467617    1.619549   -1.252983
H      8.594195    0.892205    0.478002
