46

C     -1.814967    4.576307    1.907516
C     -1.833787    3.491574    0.878811
N     -0.815172    2.589715    0.826665
C     -0.800666    1.562177   -0.066769
C     -1.851993    1.435483   -0.988404
C     -2.912791    2.341381   -0.947147
C     -2.912417    3.371869   -0.006141
C      0.352721    0.641390   -0.083214
C      0.375503   -0.716265   -0.374235
N      1.652345   -1.148334   -0.358783
C      2.384425   -0.050136   -0.064532
N      1.615862    1.043839    0.134253
C      3.889565   -0.099308    0.145506
C      4.171097   -0.619110    1.567448
C      4.526716    1.297855   -0.024951
C      4.523112   -1.057280   -0.886400
C     -0.770102   -1.630313   -0.558674
C     -1.936015   -1.500235    0.231479
C     -2.968103   -2.411706    0.030405
C     -2.877041   -3.412525   -0.880586
C     -1.743995   -3.591381   -1.667760
C     -0.676231   -2.691451   -1.496186
O     -4.038032   -4.161209   -0.860190
C     -4.912846   -3.594871    0.126012
O     -4.190121   -2.481982    0.671459
H     -2.046504    5.554293    1.434929
H     -0.814569    4.640799    2.385487
H     -2.571833    4.358216    2.689445
H     -1.846457    0.656334   -1.739731
H     -3.732201    2.248040   -1.648274
H     -3.737694    4.072427    0.028229
H      1.922854    2.010333    0.382195
H      3.740362   -1.636048    1.706342
H      3.719800    0.057059    2.327294
H      5.265186   -0.674756    1.755173
H      5.634985    1.233097    0.032009
H      4.253168    1.734022   -1.011333
H      4.195388    1.991003    0.778887
H      4.304623   -0.712983   -1.921898
H      4.127430   -2.090842   -0.768827
H      5.626484   -1.099788   -0.758222
H     -2.030698   -0.730792    0.986429
H     -1.685408   -4.398844   -2.386291
H      0.216894   -2.813234   -2.097675
H     -5.851713   -3.244241   -0.351335
H     -5.127161   -4.339577    0.921585
