35

C     -5.844809    1.064995   -0.632443
O     -4.506772    1.333397   -1.038702
C     -3.373422    0.715729   -0.489278
C     -3.458800   -0.246301    0.533613
C     -2.299393   -0.833042    1.048917
C     -1.032721   -0.466818    0.561084
C     -0.955372    0.488371   -0.470228
C     -2.115458    1.073977   -0.983847
C      0.211016   -1.138180    1.118270
C      0.802693   -2.153620    0.114040
O      1.569437   -1.495044   -0.899050
C      2.463674   -0.462191   -0.597742
C      2.355126    0.228291    0.621096
C      1.245349   -0.118475    1.534421
O      1.127356    0.464591    2.646332
C      3.265863    1.254946    0.919499
C      4.264868    1.594440    0.001750
C      4.358921    0.919520   -1.220153
C      3.453191   -0.107464   -1.520067
O      5.354081    1.275791   -2.127440
O      1.626005   -3.058035    0.801903
H     -5.975317    1.315598    0.441525
H     -6.090187   -0.003668   -0.808455
H     -6.537817    1.691686   -1.230231
H     -4.415678   -0.549862    0.935736
H     -2.393294   -1.576581    1.830687
H     -0.001123    0.787063   -0.879791
H     -2.036446    1.810381   -1.773632
H     -0.071013   -1.706400    2.033739
H     -0.025350   -2.719644   -0.370966
H      3.198602    1.800720    1.852202
H      4.961875    2.388859    0.236559
H      3.522797   -0.635794   -2.462544
H      5.448871    0.806541   -3.020583
H      1.903245   -3.743778    0.139937
