36

C      4.084266    1.004133   -1.549747
C      3.917349   -0.211232   -0.637188
C      2.815879   -0.019160    0.420932
C      1.379168   -0.036008   -0.152117
C      0.313438    0.442820    0.877406
C     -0.705977   -0.587843    1.004166
C     -0.265436   -0.761135    2.419944
O     -0.606101   -1.503411    3.377590
O      0.729809    0.277827    2.229947
N     -0.306673   -1.718147    0.183174
C      0.896266   -1.402374   -0.479661
O      1.447450   -2.185522   -1.296955
C     -2.202486   -0.186517    0.862155
C     -2.704308   -0.105764   -0.607359
C     -4.235110    0.018449   -0.641501
C     -2.073680    1.050716   -1.397773
O     -2.463144    1.028394    1.524861
H      4.227097    1.927047   -0.948502
H      4.978765    0.861467   -2.192029
H      3.203660    1.126618   -2.212676
H      4.880289   -0.375840   -0.106732
H      3.725247   -1.113898   -1.252092
H      2.991856    0.947670    0.941997
H      2.917182   -0.822754    1.183902
H      1.308693    0.601960   -1.056149
H     -0.058319    1.474863    0.693252
H     -0.784786   -2.646288    0.154740
H     -2.788290   -1.002281    1.350718
H     -2.448616   -1.054097   -1.128564
H     -4.564876    0.965099   -0.162118
H     -4.599231    0.004994   -1.691136
H     -4.704102   -0.836219   -0.108859
H     -0.992042    0.874628   -1.546563
H     -2.221838    2.019868   -0.876077
H     -2.531271    1.120530   -2.407714
H     -2.560129    0.821407    2.490923
