33

C     -2.002362    2.416910    0.228714
C     -1.875103    0.929541   -0.036734
C     -0.617500    0.274498    0.127161
C     -0.505319   -1.103168   -0.162133
C     -1.641263   -1.835908   -0.524918
C     -2.885777   -1.218117   -0.633742
C     -3.013829    0.160899   -0.405179
C     -4.354617    0.763690   -0.561773
O     -4.567901    1.601186   -1.477654
O     -5.404463    0.372410    0.263972
O     -4.003182   -1.974879   -0.991820
C      0.814479   -1.775720   -0.085963
O      0.892218   -3.030536   -0.197189
C      2.045133   -0.971735    0.088579
C      1.946518    0.408711    0.366753
C      0.599423    0.975419    0.633107
O      0.483780    1.963785    1.405871
C      3.132441    1.184997    0.446424
C      4.379216    0.559316    0.346639
C      4.472746   -0.812143    0.113642
C      3.309589   -1.573741   -0.027724
O      5.728379   -1.407232    0.011492
O      3.117911    2.574547    0.587694
H     -2.016941    2.599066    1.323517
H     -1.154245    2.963554   -0.234437
H     -2.917021    2.867082   -0.197590
H     -1.563987   -2.896069   -0.732905
H     -5.263085   -0.302023    1.006644
H     -3.938878   -2.970787   -1.167904
H      5.283583    1.149993    0.425928
H      3.396212   -2.634133   -0.230258
H      5.832040   -2.400384   -0.161210
H      2.291803    3.140972    0.452995
