47

C     -2.668227    2.583994    0.042384
C     -2.418240    1.088557   -0.206006
C     -3.405866    0.203565    0.589320
C     -3.096917   -1.277782    0.304888
C     -1.595950   -1.559229    0.529778
C     -0.738827   -0.530095   -0.236480
O     -1.084988    0.787003    0.167557
O      0.621676   -0.776132    0.064897
C      1.490824    0.065231   -0.683700
C      2.557855   -0.801897   -1.398575
C      1.916636   -1.801826   -2.380316
O      1.199567   -1.135229   -3.384700
O      3.319734   -1.506348   -0.454078
C      2.136860    1.170524    0.220834
C      1.984706    0.951412    1.757542
C      2.756586   -0.276232    2.280027
O      2.643454   -0.365590    3.675351
O      2.401398    2.102455    2.451300
O      1.546196    2.404838   -0.112329
O     -1.266833   -2.871092    0.143953
O     -3.876838   -2.094188    1.140278
O     -3.280371    0.470806    1.964903
O     -3.965245    2.949672   -0.347158
H     -1.917903    3.186157   -0.519318
H     -2.537389    2.819038    1.120143
H     -2.563766    0.915525   -1.298867
H     -4.444701    0.423942    0.246421
H     -3.354710   -1.479604   -0.762575
H     -1.374091   -1.456992    1.615413
H     -0.908372   -0.671969   -1.332361
H      0.960688    0.597117   -1.512997
H      3.223765   -0.122793   -1.982836
H      2.706773   -2.438155   -2.840200
H      1.225219   -2.479219   -1.835405
H      1.871973   -0.743306   -4.001096
H      4.164658   -1.772126   -0.903083
H      3.229664    1.226070   -0.005127
H      0.909090    0.806208    1.994605
H      2.328640   -1.204158    1.853035
H      3.827880   -0.221741    1.977056
H      3.349683    0.216678    4.059838
H      3.364602    2.241153    2.249682
H      2.228703    3.112100    0.029485
H     -1.449984   -2.954368   -0.828489
H     -3.906742   -2.992104    0.718616
H     -4.145458    0.228530    2.387425
H     -3.965411    2.981600   -1.339363
