24

C     -3.846777    0.077403    0.076812
C     -2.982257    1.249581   -0.028620
N     -2.606867   -0.001187   -0.730460
C     -1.553231   -0.746686   -0.016033
C     -0.190377   -0.412318   -0.620681
N      0.863356   -1.172315    0.065209
C      2.201807   -0.751489   -0.374279
C      2.712276    0.401194    0.493739
N      4.083805    0.738218    0.126038
H     -4.756494    0.109880   -0.558559
H     -3.821287   -0.451802    1.055782
H     -2.384781    1.495735    0.876923
H     -3.338134    2.030260   -0.732984
H     -1.744475   -1.834096   -0.146064
H     -1.520227   -0.545957    1.081085
H     -0.016233    0.679798   -0.507441
H     -0.198711   -0.660534   -1.706525
H      0.745534   -2.179784   -0.196752
H      2.906712   -1.605777   -0.261313
H      2.208241   -0.459663   -1.449525
H      2.062457    1.295504    0.373321
H      2.686921    0.090642    1.561399
H      4.068323    1.181915   -0.821274
H      4.420419    1.471477    0.791324
