36

C      0.465270    1.118813    1.111386
C     -1.075368    0.989937    0.740392
N     -1.251315    1.132274   -0.696589
C     -0.955204   -0.142243   -1.352754
C     -1.140638   -1.190470   -0.218308
N     -1.519269   -0.380797    0.940876
N     -2.029726   -0.893008    2.146915
O     -2.259888   -2.113749    2.265562
O     -2.324646   -0.046684    3.190180
N      0.143340   -1.859205    0.073809
C      1.298676   -0.986241    0.369099
N      0.979672   -0.171663    1.542712
N      0.962694   -0.642704    2.867583
O      1.303001   -1.815720    3.123517
O      0.616697    0.199252    3.898618
C      1.484184    0.061883   -0.765456
N      1.247726    1.340909   -0.095561
N      1.539642    2.599261   -0.651239
O      1.281080    3.643675   -0.019004
O      2.156545    2.688342   -1.877149
N      0.450451   -0.123645   -1.805090
N      0.776762   -0.119326   -3.178295
O      1.967268   -0.059537   -3.548909
O     -0.210244   -0.203948   -4.133161
N      0.216758   -3.258967    0.239598
O      1.294708   -3.807064    0.549216
O     -0.893267   -4.047170    0.040357
N     -1.453922    2.352547   -1.365425
O     -1.460366    2.393817   -2.612636
O     -1.692156    3.503637   -0.651336
H      0.660315    1.905780    1.870463
H     -1.713559    1.707176    1.298675
H     -1.671097   -0.332226   -2.179959
H     -1.949297   -1.905931   -0.477289
H      2.238380   -1.555684    0.531319
H      2.516796    0.018680   -1.172119
