27

C      2.807997    0.747507    0.171982
C      1.460909    0.092551   -0.027396
C      0.290673    0.797914    0.050702
C     -1.081483    0.098915   -0.038230
C     -0.976080   -1.315558   -0.669225
C      0.190494   -2.103593   -0.092455
C      1.492317   -1.376511   -0.397392
C     -1.686560   -0.010999    1.381197
C     -2.047344    0.921103   -0.924776
C      0.283068    2.255249    0.372034
O      1.203710    3.028944   -0.000573
H      2.839315    1.271295    1.150746
H      3.012733    1.459825   -0.653957
H      3.629922    0.000831    0.167845
H     -0.830420   -1.234902   -1.770657
H     -1.916744   -1.887963   -0.510717
H      0.074799   -2.240696    1.003277
H      0.218345   -3.113291   -0.556571
H      1.713250   -1.458913   -1.483868
H      2.308212   -1.894319    0.152052
H     -2.635675   -0.588873    1.363160
H     -1.915322    0.991884    1.798899
H     -0.982817   -0.509980    2.079525
H     -3.004979    0.375148   -1.070170
H     -2.294557    1.902250   -0.468184
H     -1.595519    1.106167   -1.923417
H     -0.558246    2.686014    0.896169
