35

C     -2.573333   -1.777284   -0.496716
C     -3.068307   -0.416140   -0.002833
C     -2.177373    0.223071    1.097529
C     -2.984987    1.339377    1.790575
C     -0.836547    0.777464    0.524920
C     -0.054043    1.548286    1.553313
O      0.390160    0.967436    2.580385
O      0.180763    2.907244    1.369295
N      0.012779   -0.309039    0.032092
C      0.917683   -0.140920   -1.068902
O      0.925736    0.937840   -1.723472
C      1.905363   -1.238198   -1.398013
C      3.108133   -1.224029   -0.435667
C      3.867531    0.069687   -0.466946
O      4.856872    0.204366   -1.235689
O      3.460282    1.131658    0.334860
N      2.352021   -1.180129   -2.794080
H     -1.724916   -1.659620   -1.200294
H     -3.390552   -2.287188   -1.049521
H     -2.273080   -2.422777    0.355619
H     -4.090583   -0.579389    0.404487
H     -3.168453    0.275451   -0.867765
H     -1.953489   -0.546032    1.870510
H     -3.194600    2.167542    1.079840
H     -3.949867    0.943241    2.173171
H     -2.435232    1.744423    2.665653
H     -1.085024    1.467390   -0.312162
H      0.706864    3.440255    2.051312
H      0.098778   -1.174814    0.612287
H      1.385245   -2.211315   -1.254069
H      3.793673   -2.060471   -0.694129
H      2.751862   -1.403623    0.601989
H      3.952769    2.016537    0.315264
H      2.776954   -0.246274   -2.997025
H      1.516917   -1.284027   -3.415817
