46

C     -2.291008   -1.941238   -0.100855
C     -2.255178   -0.465774   -0.616600
C     -1.461518   -0.384506   -1.936775
C      0.040376   -0.683145   -1.708765
C      0.684035    0.168773   -0.569388
C     -0.175411    0.152787    0.734605
C     -1.626023    0.525350    0.369605
C     -2.660130    0.671627    1.478975
C     -4.009909    0.531580    0.752439
C     -3.690233    0.091361   -0.694024
O     -4.609722   -0.862506   -1.160947
C      0.416213    1.148447    1.746093
C      1.835509    0.740968    2.139283
C      2.708825    0.513116    0.928098
C      4.020947    0.792629    1.024228
C      4.969053    0.424197   -0.035192
O      6.179417    0.758246    0.063610
C      4.517546   -0.412992   -1.188275
C      3.051988   -0.122312   -1.511083
C      2.147223   -0.272846   -0.260088
H     -2.768032   -2.598201   -0.858933
H     -1.285673   -2.360895    0.088773
H     -2.873592   -2.035728    0.838671
H     -1.557453    0.631750   -2.379719
H     -1.874950   -1.105220   -2.675400
H      0.186416   -1.764406   -1.504461
H      0.554821   -0.466655   -2.668100
H      0.719773    1.219632   -0.939987
H     -0.146812   -0.853817    1.202227
H     -1.576390    1.529564   -0.121503
H     -2.577105    1.662071    1.977368
H     -2.537368   -0.131070    2.238518
H     -4.553949    1.501133    0.745246
H     -4.638326   -0.226319    1.269912
H     -3.709187    0.987331   -1.359947
H     -5.466450   -0.381381   -1.301913
H      0.429150    2.174910    1.316463
H     -0.205010    1.170830    2.667170
H      1.799491   -0.198806    2.732011
H      2.255634    1.537713    2.792341
H      4.410033    1.289513    1.905545
H      5.141416   -0.195993   -2.082372
H      4.638722   -1.485935   -0.925166
H      2.966773    0.909639   -1.918820
H      2.739907   -0.836286   -2.301431
H      2.136159   -1.347134    0.030577
