49

C     -1.568549   -2.553790    1.506939
C     -2.196365   -1.262806    1.029426
C     -1.521681   -0.082222    1.046470
C     -2.205217    1.159611    0.588396
O     -1.573535    2.251455    0.559472
C     -3.629509    1.132448    0.184137
C     -4.331911   -0.090436    0.177001
C     -3.559249   -1.332391    0.439728
O     -4.015194   -2.453295    0.087916
C     -5.720789   -0.087389   -0.128249
C     -6.341298    1.102488   -0.522195
C     -5.628344    2.302738   -0.555130
C     -4.283629    2.319342   -0.189107
O     -6.251408    3.488637   -0.938012
O     -6.528113   -1.222371   -0.021879
C     -0.089105    0.022586    1.552944
C      0.881035   -0.800536    0.737650
C      1.270053   -0.509754   -0.524756
C      0.727653    0.686109   -1.269154
C      2.263139   -1.421964   -1.218114
C      3.675714   -1.296879   -0.628182
C      4.280883    0.065070   -0.879970
C      5.504085    0.421480   -0.434707
C      6.364736   -0.532243    0.359466
C      6.011561    1.806213   -0.743263
H     -0.923851   -2.975046    0.707678
H     -0.973147   -2.402333    2.429707
H     -2.346240   -3.304330    1.760691
H     -7.394307    1.096897   -0.775523
H     -3.751872    3.262832   -0.200928
H     -7.228421    3.511538   -1.206052
H     -6.266417   -2.052670    0.490084
H     -0.057684   -0.318555    2.608996
H      0.271000    1.071440    1.581439
H      1.303081   -1.675454    1.225495
H      1.223560    0.807981   -2.254398
H     -0.358061    0.556993   -1.453050
H      0.907099    1.613954   -0.687443
H      2.304465   -1.209747   -2.308578
H      1.919283   -2.474621   -1.116405
H      4.320448   -2.068460   -1.101142
H      3.643353   -1.498499    0.463915
H      3.704388    0.790869   -1.448680
H      7.338215   -0.073313    0.630234
H      5.847453   -0.816297    1.299760
H      6.571479   -1.444484   -0.238526
H      6.064027    1.950049   -1.843311
H      5.323176    2.562958   -0.310736
H      7.024010    1.976194   -0.321597
