45

C     -2.007545   -0.348082   -1.703613
C     -1.493752   -1.323553   -0.639015
C     -2.340116   -1.141531    0.651436
N     -3.032005    0.172083    0.743254
C     -2.340632    1.334924    0.124766
C     -1.494231    0.976400   -1.128149
C     -0.131144    0.571235   -0.680030
C      0.994120    1.367054   -0.457900
C      2.150432    0.752434    0.051218
N      3.276791    1.478280    0.277258
C      4.398793    0.895569    0.776958
C      4.399079   -0.472104    1.067823
N      3.277352   -1.208181    0.848591
C      2.150723   -0.637585    0.346836
C      0.994700   -1.406655    0.131988
C     -0.130864   -0.770553   -0.394670
C      0.484929   -0.746674    0.565777
C     -0.989171   -0.298242    0.402840
C     -1.385895   -0.130732   -1.041516
O     -1.960292   -1.075410   -1.644660
O     -1.104702    1.044923   -1.734236
O     -1.212076    0.908557    1.086247
C      1.464460    0.248624   -0.002918
O      1.869112    0.145147   -1.192502
O      1.890799    1.316639    0.780480
O      0.694987   -2.034596    0.038181
H     -1.532133   -0.557648   -2.689485
H     -3.111669   -0.376154   -1.834520
H     -1.466273   -2.376185   -0.994808
H     -3.102545   -1.950977    0.682343
H     -1.710822   -1.282080    1.557670
H     -3.978572    0.078591    0.304574
H     -3.103386    2.086592   -0.176329
H     -1.711473    1.832340    0.895325
H     -1.467138    1.793156   -1.881508
H      0.969620    2.429155   -0.666830
H      5.285769    1.490403    0.949084
H      5.286278   -0.945060    1.467035
H      0.970644   -2.461869    0.373347
H      0.689156   -0.814026    1.656373
H     -1.641453   -1.088114    0.845101
H     -0.636626    1.824400   -1.288082
H     -1.224036    0.693965    2.055737
H      2.534380    2.006771    0.412181
H      0.526430   -2.001233   -0.939002
