26

C     -3.910400    0.633880    0.573941
C     -2.949507   -0.038198   -0.351307
O     -3.089936   -1.263659   -0.612301
N     -1.901680    0.721272   -0.968850
C     -0.910290    0.119617   -1.859993
C      0.103979   -0.723925   -1.076924
C      0.932185    0.132272   -0.105138
C      1.956094   -0.714009    0.672655
C      2.631957    0.122618    1.726896
O      2.541690   -0.200244    2.941699
O      3.360456    1.251805    1.362968
N      2.947865   -1.290583   -0.238621
H     -3.355382    1.276631    1.288918
H     -4.611715    1.261617   -0.013974
H     -4.490350   -0.119833    1.147850
H     -1.868118    1.754191   -0.813197
H     -0.373123    0.922237   -2.411073
H     -1.423405   -0.515252   -2.614330
H      0.782523   -1.214823   -1.807615
H     -0.426389   -1.523390   -0.516241
H      0.245398    0.620068    0.621638
H      1.458695    0.932205   -0.671666
H      1.412211   -1.546171    1.174632
H      3.819948    1.821617    2.063143
H      3.598787   -1.895381    0.313908
H      3.518506   -0.524564   -0.666244
