21

C     -3.094376    0.681679   -0.135991
C     -1.838274    0.356499   -0.892662
O     -1.514356    1.062481   -1.836333
C     -0.965820   -0.827252   -0.525004
C      0.440486   -0.390721   -0.158687
C      0.657371    0.591323    0.827048
C      1.957655    0.972534    1.171504
C      3.052675    0.374372    0.543536
C      2.849561   -0.608381   -0.428276
C      1.551086   -0.993281   -0.776650
O     -1.530924   -1.601980    0.504962
H     -3.621307    1.540991   -0.603206
H     -2.843855    0.949299    0.911486
H     -3.774897   -0.195234   -0.141694
H     -0.923378   -1.473943   -1.428347
H     -0.179427    1.062714    1.326923
H      2.116235    1.730952    1.927251
H      4.058582    0.670223    0.812034
H      3.699063   -1.074215   -0.910854
H      1.414097   -1.760761   -1.528199
H     -1.510197   -1.067299    1.341162
