49

C      7.146679   -0.108123   -0.709413
C      6.409241    0.541446    0.460835
C      5.084020    1.203791    0.044311
C      4.034351    0.241135   -0.539961
C      3.577931   -0.829767    0.465227
C      2.397420   -1.670900   -0.067083
C      1.040902   -1.297349    0.559889
C      0.510722    0.095373    0.171868
C      0.207392    0.281581   -1.329999
C     -0.842253   -0.691301   -1.895237
C     -2.146021   -0.632995   -1.149708
C     -2.943058    0.440802   -1.221421
C     -4.240526    0.554922   -0.512956
C     -4.566780   -0.249866    0.608860
C     -5.804495   -0.057885    1.216093
C     -6.688434    0.869813    0.773239
C     -6.410931    1.690360   -0.313718
C     -5.170505    1.531155   -0.957315
O     -7.822354    0.840363    1.561857
C     -7.638261   -0.169232    2.563999
O     -6.337109   -0.716131    2.307812
H      7.259059    0.612506   -1.547144
H      6.603172   -1.008620   -1.063274
H      8.157634   -0.425423   -0.377589
H      6.238348   -0.209292    1.260512
H      7.066469    1.327975    0.890836
H      5.299018    1.992279   -0.709579
H      4.649130    1.715067    0.930644
H      3.163243    0.853127   -0.848714
H      4.426776   -0.244659   -1.458384
H      4.429584   -1.517878    0.653836
H      3.318167   -0.355116    1.436759
H      2.590742   -2.734059    0.196372
H      2.341899   -1.643085   -1.175890
H      1.134251   -1.341345    1.666989
H      0.291391   -2.069768    0.288240
H      1.238172    0.869734    0.493194
H     -0.416497    0.289588    0.752920
H     -0.148299    1.323161   -1.485270
H      1.139514    0.181091   -1.922448
H     -1.023072   -0.448788   -2.965017
H     -0.446563   -1.728127   -1.867597
H     -2.436542   -1.507266   -0.584019
H     -2.643381    1.264447   -1.859715
H     -3.885194   -0.982308    1.017160
H     -7.125682    2.429221   -0.651359
H     -4.936546    2.163075   -1.805385
H     -7.670160    0.285253    3.576333
H     -8.412563   -0.957983    2.459903
