25

C      3.622939   -0.965604   -0.775336
C      2.613229    0.010283   -0.247071
C      1.275762   -0.381310   -0.074375
C      0.328804    0.515677    0.455621
C      0.750411    1.800750    0.841220
C      2.084272    2.185433    0.686349
C      3.014107    1.294320    0.148130
C     -1.087703    0.116615    0.638453
O     -1.784516    0.699212    1.514178
N     -1.683139   -0.908073   -0.175341
C     -3.040222   -1.396751    0.055355
C     -4.041441   -0.398556   -0.440683
O     -4.208994   -0.244436   -1.678982
O     -4.772702    0.381566    0.450620
H      3.150834   -1.662852   -1.499922
H      4.046648   -1.550780    0.067332
H      4.446794   -0.434512   -1.298121
H      0.988918   -1.392671   -0.331643
H      0.046483    2.511124    1.256995
H      2.398564    3.176518    0.987366
H      4.046743    1.603865    0.043686
H     -1.164249   -1.288965   -0.997480
H     -3.185699   -2.351937   -0.493875
H     -3.190870   -1.606514    1.136081
H     -4.654973    0.287598    1.452251
