16

C     -2.074824    0.114427   -0.167384
C     -0.568162    0.079138   -0.157780
C      0.167205    1.261189    0.049981
C      1.565432    1.222779    0.090147
C      2.238905    0.007567   -0.063364
C      1.515811   -1.173834   -0.251449
C      0.117364   -1.143001   -0.292741
F     -0.566781   -2.303545   -0.460610
F      2.171318   -2.353303   -0.389032
F      3.594192   -0.026340   -0.022269
F      2.268889    2.366227    0.283612
F     -0.469524    2.448615    0.216630
O     -2.565949    0.052619    1.143349
H     -2.428900    1.056345   -0.637320
H     -2.492575   -0.717500   -0.778559
H     -2.472401   -0.891384    1.436788
