44

C     -3.662199   -1.622442   -1.863366
C     -3.094391   -0.411792   -1.121025
C     -4.068561    0.079762   -0.029230
C     -3.446843    1.291509    0.688196
C     -2.018483    0.958773    1.159625
C     -1.201162    0.376395   -0.012526
O     -1.850461   -0.769130   -0.544085
O      0.069844   -0.005910    0.478108
C      1.001941   -0.193733   -0.577198
C      1.868289   -1.419099   -0.253824
C      2.760651   -1.122357    0.957061
C      3.524853    0.221338    0.809151
O      2.679309    1.307945    0.442480
C      1.882333    1.068862   -0.710440
O      2.676063    1.025119   -1.868492
C      4.806533    0.143496   -0.050886
O      5.445997    1.391031   -0.089640
O      3.645263   -2.193439    1.167849
O      2.652319   -1.782848   -1.361972
O     -1.404305    2.128684    1.636591
O     -4.249332    1.656612    1.781839
O     -4.314310   -0.956400    0.890357
H     -3.785861   -2.484854   -1.174262
H     -4.646037   -1.372057   -2.314554
H     -2.967832   -1.920230   -2.677558
H     -2.957136    0.391651   -1.883141
H     -5.021210    0.397353   -0.516464
H     -3.403074    2.136267   -0.040969
H     -2.080120    0.199702    1.975857
H     -1.093659    1.173531   -0.790467
H      0.501927   -0.392827   -1.557120
H      1.199073   -2.271402    0.013088
H      2.089412   -1.033896    1.844612
H      3.888479    0.460487    1.833054
H      1.197825    1.942700   -0.800802
H      2.065524    1.136941   -2.643532
H      4.608933   -0.227017   -1.078110
H      5.509697   -0.580973    0.411682
H      5.000805    1.920130   -0.801313
H      4.008405   -2.088606    2.086061
H      2.046253   -2.227709   -2.010503
H     -0.656533    1.843599    2.224163
H     -4.014364    2.593230    2.012432
H     -5.193855   -0.768395    1.310492
