47

C     -3.022652   -1.227485    2.350193
C     -2.964435   -0.179939    1.227335
C     -3.928706   -0.562670    0.072906
C     -3.851663    0.478288   -1.071215
C     -2.456359    1.134422   -1.157672
C     -1.389815    0.194753   -0.551914
O     -1.599901   -0.021966    0.836304
O     -0.107827    0.780724   -0.707264
C      0.555905    0.307867   -1.866121
C      1.378664   -0.966786   -1.569596
C      2.345879   -0.824717   -0.359422
C      3.292927    0.410041   -0.443048
C      4.455522    0.373418    0.594298
C      3.982348    0.511879    2.055647
O      5.082100    0.655823    2.914927
O      5.391844    1.380751    0.296840
O      3.831447    0.534178   -1.737158
O      1.590815   -0.757520    0.823808
O      2.103722   -1.339652   -2.713567
O     -2.467578    2.356074   -0.460927
O     -4.144898   -0.147639   -2.295037
O     -5.245857   -0.633567    0.558061
O     -2.169865   -0.866928    3.403446
H     -4.063204   -1.343696    2.730043
H     -2.693917   -2.211883    1.953548
H     -3.310905    0.787543    1.654938
H     -3.617746   -1.563523   -0.312840
H     -4.600755    1.285922   -0.887041
H     -2.216702    1.326680   -2.230365
H     -1.454377   -0.800394   -1.055732
H     -0.145061    0.121820   -2.713098
H      1.236728    1.108672   -2.221764
H      0.668459   -1.790609   -1.324821
H      2.984154   -1.739847   -0.332843
H      2.690640    1.324356   -0.248355
H      4.980690   -0.602367    0.500728
H      3.284800    1.374780    2.162892
H      3.442744   -0.406016    2.362957
H      5.303049    1.623343    2.941113
H      4.924927    2.253990    0.376919
H      4.408157   -0.258819   -1.896582
H      1.281588   -1.679240    1.026154
H      1.449679   -1.703480   -3.366395
H     -1.702436    2.890551   -0.799522
H     -5.129254   -0.272740   -2.327699
H     -5.761769   -1.182387   -0.088505
H     -2.621105   -0.132005    3.895445
