24

C     -1.630382   -0.952007    0.539415
C     -0.771404   -0.913049   -0.735339
C     -1.641306   -0.975526   -1.958241
O     -2.500750   -0.078100   -2.175909
O     -1.493734   -2.025280   -2.859838
N      0.031878    0.313701   -0.771438
C      1.468047    0.313037   -0.762078
O      2.110093   -0.772537   -0.730777
C      2.219920    1.612659   -0.738693
N      2.332103    2.127414    0.623552
C     -0.770551   -0.999053    1.769211
O     -0.349774   -2.107129    2.196653
N     -0.388524    0.206038    2.432279
H     -2.294167   -0.060696    0.583655
H     -2.281011   -1.854250    0.522168
H     -0.115060   -1.811813   -0.738286
H     -2.070898   -2.080974   -3.691035
H     -0.465621    1.233888   -0.774357
H      3.238221    1.467059   -1.159964
H      1.696910    2.359677   -1.373802
H      2.790248    1.401472    1.222753
H      1.369863    2.290414    1.001510
H      0.238291    0.171962    3.266013
H     -0.722390    1.133092    2.086697
