22

C      2.144322    0.678491    1.283476
C      1.712118   -0.235661    0.135844
C      0.372615    0.186657   -0.518155
C      0.115661   -0.683551   -1.762415
C     -0.834877    0.161235    0.467634
C     -2.048214    0.794296   -0.165164
O     -2.183952    2.047141   -0.145067
O     -2.999644    0.006786   -0.808653
N     -1.144933   -1.204233    0.904332
H      2.079982    1.745052    0.980280
H      1.517053    0.505979    2.182158
H      3.196543    0.453146    1.557814
H      1.663698   -1.284836    0.496868
H      2.512196   -0.196635   -0.636028
H      0.499771    1.233844   -0.875481
H      0.974495   -0.614115   -2.463751
H     -0.784992   -0.335087   -2.308878
H     -0.022466   -1.748521   -1.478580
H     -0.591751    0.774399    1.362780
H     -3.808798    0.426463   -1.250432
H     -1.994363   -1.173280    1.514904
H     -0.374465   -1.537572    1.526513
