23

C      1.213130   -0.477762    0.880321
C      2.667054   -0.897749    0.629340
C      3.474993    0.222287    0.049253
O      3.748266    0.234116   -1.180840
O      3.899220    1.265560    0.866149
C      0.440156   -0.246564   -0.425384
N     -0.955600    0.093300   -0.150624
C     -1.884567    0.351630   -1.211113
O     -1.517161    0.264643   -2.414309
C     -3.311827    0.678978   -0.897436
N     -4.073823   -0.550787   -0.712749
H      1.189287    0.445652    1.500240
H      0.710394   -1.286196    1.454930
H      2.698243   -1.782779   -0.043409
H      3.125756   -1.197474    1.595876
H      4.436299    2.036377    0.487301
H      0.908212    0.584507   -0.995714
H      0.474838   -1.169567   -1.044337
H     -1.294892    0.151370    0.836888
H     -3.750551    1.263424   -1.735705
H     -3.364244    1.303799    0.021709
H     -5.075362   -0.285564   -0.570929
H     -3.757820   -1.001198    0.177252
