49

C      1.347414    3.513409    2.084634
C      0.977842    2.943202    0.712610
C      1.851552    1.732542    0.328550
C      3.338673    1.932527    0.301027
C      4.173431    1.004118   -0.196748
C      3.733884   -0.215767   -0.917377
O      3.822112   -0.212825   -2.173765
C      3.434254   -1.512499   -0.184386
C      2.742084   -2.619639   -1.049953
C      1.461223   -2.212667   -1.823961
C      0.240214   -1.896519   -0.944357
C     -0.529071   -0.667129   -1.321967
O      0.422715   -0.681946   -0.285559
C     -1.854652   -0.333707   -0.692748
C     -2.102387    0.971636   -0.193476
C     -3.323681    1.242694    0.457528
C     -4.286196    0.234836    0.580067
C     -4.055169   -1.049830    0.056527
C     -2.840851   -1.322193   -0.577865
O     -5.001726   -2.081243    0.149110
C     -6.279665   -1.948406    0.763427
O     -3.615788    2.504758    0.979853
C     -1.084119    2.033381   -0.352357
O     -0.793827    2.450866   -1.506371
O     -0.386908    2.506370    0.766990
O      2.455036   -3.743533   -0.255726
O      2.698345   -1.258313    0.982992
H      1.344764    2.711144    2.853735
H      0.605602    4.286267    2.377592
H      2.345349    3.996762    2.060481
H      1.085882    3.745718   -0.050775
H      1.633818    0.931141    1.060889
H      1.550445    1.420094   -0.692383
H      3.766338    2.845010    0.693756
H      5.233628    1.223140   -0.200535
H      4.432844   -1.914729    0.108716
H      3.479237   -2.922416   -1.831700
H      1.173210   -3.064593   -2.476955
H      1.686942   -1.374381   -2.514676
H     -0.215282   -2.658606   -0.277709
H     -0.173394   -0.042435   -2.168363
H     -5.216521    0.467669    1.079319
H     -2.662010   -2.314806   -0.973047
H     -6.818368   -2.915470    0.692289
H     -6.875660   -1.170635    0.240848
H     -6.162387   -1.684894    1.836015
H     -2.978554    3.288843    0.913888
H      3.323087   -4.176400   -0.041676
H      2.896293   -1.990546    1.623595
