18

C     -0.201829    1.882585    0.124321
C     -1.300301    1.036890   -0.042959
C     -1.117726   -0.352501   -0.156508
C      0.188852   -0.874049   -0.106669
C      1.296250   -0.029546    0.090733
C      1.089480    1.356438    0.184572
C      2.694068   -0.596510    0.101431
F      3.543212    0.203459    0.846594
F      2.700794   -1.865467    0.654337
F      3.165941   -0.667773   -1.195875
C     -2.272250   -1.262758   -0.355650
O     -2.091460   -2.398777   -0.869538
O     -3.564769   -0.904095    0.025645
H     -0.351241    2.952352    0.195524
H     -2.283427    1.480919   -0.115928
H      0.344924   -1.940823   -0.213484
H      1.926471    2.033976    0.297555
H     -3.766990   -0.054321    0.535901
