17

C     -0.463735   -1.220473   -0.070813
C      0.930148   -1.191857    0.034935
C      1.608225    0.032099    0.106695
C      0.878868    1.228060    0.079875
C     -0.515060    1.201526   -0.025836
C     -1.198901   -0.023081   -0.125187
C     -2.705238   -0.053820   -0.188854
F     -3.190139    1.069596   -0.836074
F     -3.214305   -0.088450    1.095820
F     -3.142636   -1.171984   -0.877675
N      3.033791    0.060277    0.216057
H     -0.966876   -2.178572   -0.107908
H      1.480923   -2.123583    0.066797
H      1.389716    2.180449    0.146727
H     -1.058352    2.138175   -0.027746
H      3.547779    0.967705    0.273256
H      3.585792   -0.826068    0.239932
