34

C      4.512300    2.301921   -0.241447
C      4.459204    0.780586   -0.109591
C      3.663747    0.100986   -1.237630
C      2.172870    0.481181   -1.295122
C      1.390214    0.005559   -0.062771
C     -0.113650    0.256850   -0.235334
C     -0.890300   -0.197404    1.005441
C     -2.366284   -0.034430    0.796117
O     -2.947181    0.997168    1.231439
N     -3.103785   -1.033979    0.077337
C     -4.561840   -0.990532   -0.054803
C     -5.208030   -1.313124    1.257346
O     -6.340877   -0.834400    1.534475
O     -4.594839   -2.203062    2.137654
O     -4.980665   -1.937036   -1.000314
H      5.213413    2.712685    0.514919
H      4.874087    2.593792   -1.251322
H      3.512290    2.747014   -0.058690
H      4.044506    0.503856    0.882488
H      5.501139    0.394003   -0.142989
H      4.133464    0.352517   -2.211321
H      3.750315   -0.998414   -1.109257
H      2.057221    1.578491   -1.419519
H      1.737775    0.003944   -2.202325
H      1.744808    0.544789    0.842248
H      1.562424   -1.085247    0.082949
H     -0.292966    1.341283   -0.406243
H     -0.478214   -0.307019   -1.122708
H     -0.673224   -1.267527    1.218339
H     -0.570489    0.396675    1.889546
H     -2.584680   -1.851310   -0.320533
H     -4.876922    0.028221   -0.383008
H     -5.046250   -2.473298    3.001713
H     -4.699582   -1.594738   -1.888229
