19

C     -0.999796   -1.617690    0.556025
C     -1.841954   -0.603060    0.354390
C     -1.317597    0.790567    0.121994
C      0.018535    0.761504   -0.656102
C      0.963977   -0.294835   -0.099999
C      0.455065   -1.426878    0.420734
C      2.427201   -0.168854   -0.311489
O      2.862976    0.526136   -1.267158
O      3.343591   -0.795433    0.532292
O      0.621646    2.028641   -0.583824
O     -2.261387    1.541609   -0.595812
H     -1.386824   -2.597189    0.806143
H     -2.908333   -0.768597    0.447618
H     -1.133878    1.260053    1.117180
H     -0.182150    0.496014   -1.721081
H      1.098873   -2.248646    0.705782
H      3.057838   -1.290252    1.367881
H      0.155329    2.607809   -1.241764
H     -2.973112    1.799102    0.047190
