45

C      3.543703    2.008919    0.428188
C      2.773980    0.697744    0.665217
C      3.625004   -0.597662    0.412544
C      3.210380   -1.294093   -0.895772
C      1.676029   -1.540667   -0.924257
C      0.909871   -0.505378   -0.067259
O      1.588490    0.736428   -0.119661
O     -0.390489   -0.350204   -0.602822
C     -1.254650    0.312365    0.311510
C     -2.175001    1.287740   -0.468328
C     -3.481048    0.578943   -0.930983
O     -3.233721   -0.793277   -1.176775
C     -3.008844   -1.503783    0.035673
C     -2.104167   -0.740260    1.051760
O     -2.892527   -0.113109    2.033559
O     -4.242139   -1.857173    0.608790
C     -4.088451    1.218052   -2.189344
O     -5.321148    0.622601   -2.493197
O     -1.477576    1.833768   -1.561411
O      1.364698   -2.848155   -0.509672
O      3.590719   -0.496850   -1.988925
O      5.007114   -0.342895    0.397415
O      3.869102    2.163321   -0.928060
H      4.448044    2.064688    1.077448
H      2.892023    2.858586    0.724528
H      2.484124    0.707657    1.741325
H      3.405461   -1.317355    1.237621
H      3.747371   -2.270921   -0.953567
H      1.332978   -1.444951   -1.978612
H      0.849059   -0.881767    0.985555
H     -0.695397    0.922732    1.062972
H     -2.478437    2.116968    0.214215
H     -4.246427    0.691459   -0.125795
H     -2.471915   -2.437669   -0.250229
H     -1.432453   -1.480534    1.546171
H     -2.285918    0.119124    2.784565
H     -4.052438   -2.561786    1.282309
H     -4.218305    2.314704   -2.039880
H     -3.407717    1.067429   -3.054262
H     -5.984733    1.001752   -1.859407
H     -0.809977    2.466726   -1.187425
H      1.730012   -2.969907    0.405493
H      3.604481   -1.088550   -2.786203
H      5.287944   -0.231637    1.343303
H      4.812891    1.876876   -1.036376
