15

C     -1.336516    1.450281    0.291863
C     -0.049580    1.108812    0.719183
C      0.569373   -0.064202    0.247387
C     -0.126434   -0.885199   -0.658841
C     -1.413732   -0.538939   -1.083129
C     -2.017895    0.627742   -0.608040
F     -2.076338   -1.336549   -1.956716
C      1.930743   -0.431886    0.695078
O      2.556141    0.302430    1.507192
O      2.534940   -1.594304    0.222856
H     -1.805855    2.353865    0.659090
H      0.459378    1.761713    1.417217
H      0.323077   -1.793750   -1.039519
H     -3.013951    0.895295   -0.936583
H      3.466650   -1.855308    0.522962
