20

C     -2.860648   -0.028235   -0.832266
C     -2.491403    0.771899    0.252426
C     -1.244100    0.596954    0.859968
C     -0.358822   -0.387471    0.388775
C     -0.733820   -1.181571   -0.708360
C     -1.982141   -1.003118   -1.312908
C      0.994694   -0.554124    1.024235
C      1.959521    0.454362    0.468574
O      2.092109    1.561835    1.055278
C      2.718486    0.189877   -0.769697
O      2.583290   -0.907227   -1.372909
O      3.591949    1.142542   -1.289633
H     -3.826008    0.109080   -1.302032
H     -3.170663    1.529728    0.620902
H     -0.966886    1.228209    1.695244
H     -0.061867   -1.937709   -1.094612
H     -2.267601   -1.619386   -2.155647
H      1.380436   -1.583988    0.861337
H      0.909982   -0.420477    2.125009
H      3.733490    2.038821   -0.839681
