26

C      3.282911   -0.040794   -0.920909
C      2.733610    0.092581    0.501392
C      1.333289    0.644348    0.463116
O      1.126144    1.829920    0.840112
N      0.245735   -0.159968   -0.020089
C     -1.133393    0.336949   -0.057399
C     -2.003539   -0.572101   -0.944223
C     -3.374053    0.005681   -1.151938
O     -3.566317    0.850875   -2.065247
O     -4.429551   -0.352384   -0.318164
C     -1.687023    0.404777    1.343057
O     -1.535665   -0.567634    2.129593
O     -2.400971    1.520980    1.769808
N      2.742933   -1.208214    1.171108
H      4.336331   -0.391571   -0.889480
H      3.259741    0.944231   -1.434702
H      2.683110   -0.769204   -1.507659
H      3.388793    0.796560    1.064496
H      0.449714   -1.134402   -0.340120
H     -1.128103    1.354878   -0.507555
H     -1.515024   -0.691005   -1.936196
H     -2.087666   -1.584763   -0.492527
H     -4.300452   -1.015346    0.436756
H     -2.559464    2.310818    1.155855
H      2.403892   -1.074500    2.152042
H      3.735019   -1.530715    1.250701
