43

C     -2.535595    0.479663   -1.959845
C     -2.574080    0.610951   -0.411373
C     -1.947611    1.943113    0.041479
C     -0.413541    1.946911   -0.204614
C      0.322468    0.684558    0.356598
C     -0.397078   -0.637990   -0.048985
C     -1.873894   -0.516633    0.359176
C     -2.819101   -1.715538    0.264340
C     -4.212984   -1.073661    0.387360
C     -3.983509    0.358948    0.009794
O     -4.866116    1.203026   -0.009883
C      0.304357   -1.809563    0.643941
C      1.727675   -1.958564    0.100119
C      2.476828   -0.645560   -0.042158
C      1.808776    0.611603    0.001435
C      2.577198    1.786211   -0.134592
C      3.946770    1.722955   -0.381691
C      4.592658    0.489819   -0.475752
C      3.861882   -0.695543   -0.307795
O      4.501741   -1.933981   -0.403285
O      5.962147    0.437047   -0.732296
H     -2.923060   -0.504992   -2.296138
H     -1.519350    0.600913   -2.380333
H     -3.172867    1.266161   -2.418771
H     -2.141638    2.104822    1.125354
H     -2.412397    2.791198   -0.507014
H     -0.200568    2.055680   -1.288682
H     -0.023977    2.857022    0.296907
H      0.280407    0.772932    1.466198
H     -0.318895   -0.801191   -1.145088
H     -1.871587   -0.256055    1.448272
H     -2.641534   -2.441947    1.086893
H     -2.704959   -2.230159   -0.714181
H     -4.578546   -1.130040    1.435275
H     -4.938209   -1.554842   -0.302862
H      0.335831   -1.647493    1.744382
H     -0.244446   -2.756677    0.452741
H      1.679293   -2.440013   -0.901088
H      2.287116   -2.640332    0.777034
H      2.134791    2.766369   -0.047051
H      4.509972    2.640824   -0.494760
H      5.493092   -2.018799   -0.592893
H      6.512542    1.278847   -0.856469
