41

C      4.254394    0.441205    0.162399
C      5.506709   -0.101689   -0.141271
C      5.661774   -0.933764   -1.254521
C      4.556017   -1.223760   -2.065507
C      3.302879   -0.681477   -1.764424
C      3.144444    0.160927   -0.651828
C      1.784496    0.715482   -0.307990
C      0.919509   -0.317131    0.439895
C      1.513407   -0.633968    1.788867
O      1.363140    0.167386    2.749888
O      2.271313   -1.787466    1.975549
N     -0.446848    0.189541    0.605017
C     -1.538194   -0.671725    0.971629
O     -1.338297   -1.906072    1.140478
C     -2.932434   -0.120660    1.161389
C     -3.452041    0.518995   -0.139879
C     -4.934095    0.899632   -0.034199
C     -5.417813    1.488180   -1.325230
O     -5.380978    2.735878   -1.497642
N     -5.874125    0.640747   -2.379382
N     -2.968222    0.841824    2.265875
O      6.915163   -1.467442   -1.544761
H      4.149399    1.075807    1.033604
H      6.356673    0.121666    0.490949
H      4.665703   -1.870139   -2.926923
H      2.454948   -0.920322   -2.394914
H      1.269144    1.008613   -1.249173
H      1.885736    1.640293    0.302631
H      0.878581   -1.243995   -0.175119
H      2.438650   -2.435925    1.214746
H     -0.634011    1.206882    0.456239
H     -3.607849   -0.967878    1.419285
H     -2.857381    1.426353   -0.383014
H     -3.327540   -0.207130   -0.974075
H     -5.539887   -0.000873    0.206664
H     -5.079904    1.639740    0.782809
H     -5.877649   -0.397461   -2.264521
H     -6.196992    1.051499   -3.283321
H     -2.641567    0.364233    3.137544
H     -2.306249    1.628584    2.073523
H      7.059999   -2.074592   -2.343068
