18

C     -1.071081   -1.284221    0.014481
C     -0.597888    0.072887   -0.533166
C     -1.670011    1.142583   -0.283862
C      0.772121    0.519029    0.052630
C      1.922377   -0.386171   -0.342532
O      1.872252   -1.052096   -1.410962
O      3.087792   -0.427573    0.419542
O      0.699456    0.672297    1.450073
H     -0.295171   -2.063364   -0.135010
H     -1.986722   -1.609151   -0.524238
H     -1.310770   -1.217228    1.096787
H     -0.490487   -0.025409   -1.636522
H     -1.355118    2.112601   -0.724305
H     -2.627691    0.843714   -0.761367
H     -1.843142    1.282150    0.804757
H      1.011671    1.516117   -0.375969
H      3.198866    0.136971    1.252911
H      0.683545   -0.233136    1.856653
