21

C      2.911830    0.146481   -0.465292
C      2.496160   -0.128526    0.839423
C      1.155684   -0.428891    1.100273
C      0.215479   -0.458905    0.053903
C      0.645814   -0.176837   -1.257057
C      1.987498    0.122963   -1.512067
C     -1.238839   -0.777722    0.347587
C     -2.164296    0.419163    0.054030
N     -1.799825    1.568095    0.879155
O     -1.647657   -1.921164   -0.362099
H      3.949821    0.379264   -0.664932
H      3.213028   -0.108063    1.650114
H      0.853229   -0.636131    2.119181
H     -0.053806   -0.183965   -2.082606
H      2.310390    0.338730   -2.522377
H     -1.350843   -1.018494    1.427730
H     -2.096806    0.702235   -1.019105
H     -3.218416    0.129028    0.263173
H     -2.412819    2.367844    0.599778
H     -2.036540    1.345588    1.873504
H     -1.719085   -1.680693   -1.322316
