43

C      6.238246    0.275597    0.625002
C      5.311797   -0.845551    0.156196
C      4.660285   -0.554244   -1.206923
C      3.766808    0.702327   -1.247150
C      2.623631    0.728375   -0.216327
C      1.619129   -0.420128   -0.409679
C      0.445062   -0.352736    0.579504
C     -0.553284    0.725768    0.219631
O     -0.284744    1.889033    0.481091
C     -1.911675    0.407925   -0.380693
C     -1.797888   -0.529619   -1.588086
C     -2.865323   -0.159580    0.648831
O     -2.415529   -0.855497    1.600251
N     -4.286588    0.036262    0.541496
C     -5.253559   -0.430632    1.525578
C     -6.619321   -0.001817    0.967798
C     -6.279933    0.668840   -0.321278
C     -4.979580    0.670471   -0.522760
H      6.779095   -0.050228    1.538353
H      5.655505    1.186169    0.875794
H      6.984564    0.517204   -0.161359
H      5.913504   -1.775101    0.059337
H      4.537341   -1.041687    0.926910
H      5.463212   -0.434817   -1.966768
H      4.068109   -1.440369   -1.518660
H      3.329869    0.787442   -2.266051
H      4.398335    1.604598   -1.101719
H      2.098159    1.698109   -0.337934
H      3.033838    0.709213    0.815186
H      1.236350   -0.420075   -1.453212
H      2.139390   -1.386375   -0.240301
H     -0.056580   -1.342763    0.585907
H      0.820216   -0.183485    1.612275
H     -2.331101    1.368336   -0.750505
H     -1.436217   -1.534964   -1.286721
H     -1.099583   -0.102129   -2.338680
H     -2.789400   -0.650502   -2.073298
H     -5.059601    0.049802    2.509075
H     -5.197192   -1.536828    1.620756
H     -7.270548   -0.882409    0.781137
H     -7.123678    0.715413    1.650138
H     -7.000419    1.096038   -1.006230
H     -4.510702    1.094611   -1.399836
