43

C     -1.340683    3.043258   -1.791283
O     -1.770619    1.870984   -1.107068
C     -0.911501    0.924551   -0.521662
C     -1.472431   -0.195169    0.122032
C     -0.627997   -1.162111    0.712254
C      0.763219   -1.000269    0.672160
C      1.328402    0.138799    0.060933
C      0.485499    1.080254   -0.547586
C      2.790794    0.382998    0.080388
C      3.511459    0.306897    1.285144
C      4.890098    0.538000    1.299598
C      5.563614    0.853229    0.112174
C      4.850984    0.938084   -1.087809
C      3.472202    0.707493   -1.105554
O      6.937264    1.084527    0.114449
O      1.566991   -1.993609    1.241300
C      2.358091   -2.870314    0.446946
O     -1.141489   -2.311297    1.320261
C     -2.943694   -0.336021    0.179902
C     -3.613729   -0.260953    1.411418
C     -5.005778   -0.380642    1.463572
C     -5.740367   -0.570670    0.288333
C     -5.075766   -0.640016   -0.943934
C     -3.683743   -0.521178   -0.998554
O     -7.126778   -0.688138    0.355168
H     -0.773885    3.702481   -1.100459
H     -0.710091    2.767249   -2.662713
H     -2.230356    3.595085   -2.157655
H      0.925187    1.952505   -1.012626
H      3.005396    0.077709    2.214730
H      5.432983    0.474896    2.234053
H      5.366595    1.181271   -2.008150
H      2.938914    0.768227   -2.046297
H      7.481731    1.030837    0.967420
H      1.706157   -3.439225   -0.249064
H      3.112855   -2.303686   -0.135182
H      2.884912   -3.585687    1.110851
H     -2.127187   -2.539586    1.329846
H     -3.057571   -0.108347    2.328320
H     -5.514351   -0.323736    2.417560
H     -5.636348   -0.785394   -1.858541
H     -3.181870   -0.577233   -1.956847
H     -7.687113   -0.826052   -0.477830
