45

C      5.408872   -3.061861   -0.376200
O      5.320283   -1.651890   -0.554513
C      4.131120   -0.909251   -0.465849
C      2.893334   -1.516049   -0.174613
C      1.717925   -0.749562   -0.094418
C      1.790046    0.636896   -0.304538
C      3.021430    1.257519   -0.592200
C      4.185733    0.480868   -0.674698
O      5.397987    1.111840   -0.967219
O      3.130007    2.642055   -0.801343
C      2.040944    3.556780   -0.723053
C      0.417185   -1.391647    0.205544
O      0.363456   -2.631413    0.435222
O     -0.757887   -0.627108    0.175474
C     -2.004406   -1.041584    0.669212
C     -2.098949   -1.848598    1.816764
C     -3.348230   -2.234064    2.312481
C     -4.511425   -1.805862    1.672731
C     -4.437886   -0.985563    0.540686
C     -3.182063   -0.603922    0.026186
C     -3.101188    0.300939   -1.180216
C     -3.143156    1.732833   -0.752411
O     -4.257013    2.314203   -0.617744
O     -1.952125    2.404168   -0.472826
C     -1.922412    3.748218   -0.008251
O     -5.610960   -0.547255   -0.073978
O     -3.444177   -3.036865    3.446355
H      4.789759   -3.582380   -1.137794
H      5.074256   -3.339838    0.646208
H      6.465691   -3.376824   -0.501972
H      2.840446   -2.584272   -0.015235
H      0.888231    1.230560   -0.240411
H      6.269720    0.601246   -1.048881
H      1.594395    3.530003    0.294656
H      1.273074    3.305477   -1.486728
H      2.415227    4.582539   -0.918827
H     -1.206511   -2.153792    2.346210
H     -5.475845   -2.102626    2.064061
H     -3.938892    0.094279   -1.880847
H     -2.168021    0.114111   -1.753601
H     -2.422132    3.818085    0.982280
H     -2.433685    4.414178   -0.735954
H     -0.867657    4.076783    0.097201
H     -6.524859   -0.807799    0.276073
H     -2.619641   -3.363556    3.936527
