8

O     -0.578483    1.407679    0.488066
P      0.112199   -0.134975    0.573723
O      0.394801   -0.474948    2.018795
O      1.561821   -0.159851   -0.299282
O     -0.959862   -1.276066   -0.068739
H     -0.735093    1.562022   -0.477569
H      1.302830    0.069482   -1.227252
H     -1.098213   -0.993342   -1.007741
