38

C      5.728265    1.739916    2.162164
C      5.352182    2.452033    1.021507
C      4.280459    2.009680    0.240956
C      3.571395    0.845870    0.595676
C      3.962922    0.134650    1.745902
C      5.034999    0.582115    2.523813
C      2.426671    0.379686   -0.228657
C      1.503773    1.301189   -0.756535
C      0.427383    0.862463   -1.532427
C      0.258675   -0.504009   -1.803002
C      1.169127   -1.427918   -1.268232
C      2.245861   -0.990217   -0.492016
C     -0.920330   -0.980678   -2.605308
C     -2.059165   -1.320929   -1.693165
O     -2.221413   -2.517659   -1.332680
N     -2.928981   -0.282120   -1.214214
C     -3.999005   -0.489877   -0.275517
C     -4.894539    0.553832    0.004827
C     -5.930938    0.344541    0.917959
C     -6.062459   -0.893536    1.548858
C     -5.150622   -1.909311    1.253870
N     -4.151003   -1.687919    0.358248
H      6.556141    2.085886    2.766061
H      5.892471    3.347068    0.740740
H      4.015671    2.568909   -0.648180
H      3.427709   -0.754611    2.055285
H      5.324832    0.033484    3.412289
H      1.602652    2.358785   -0.550639
H     -0.277008    1.588289   -1.919204
H      1.045876   -2.488106   -1.455006
H      2.945632   -1.723558   -0.109720
H     -0.637131   -1.873701   -3.203581
H     -1.240642   -0.199381   -3.327076
H     -2.777176    0.684376   -1.581956
H     -4.791713    1.515983   -0.481401
H     -6.629826    1.141639    1.137450
H     -6.861587   -1.064539    2.259000
H     -5.239158   -2.874622    1.733908
