27

C     -3.079351    0.666665    0.239434
C     -2.073767   -0.492205    0.218264
C     -0.682609   -0.034886   -0.285471
C      0.309735   -1.224081   -0.368516
C      1.692826   -0.716534   -0.819829
C      2.133968    0.478967    0.038443
C      1.011524    1.532602    0.057595
O     -0.178909    0.969982    0.582639
O      1.404317    2.610549    0.862732
O      2.415183    0.045279    1.346463
O      2.646414   -1.742938   -0.716665
O     -0.150808   -2.174878   -1.296152
O     -1.990493   -1.094667    1.486794
H     -3.186249    1.100509   -0.777590
H     -4.072687    0.294710    0.568734
H     -2.750301    1.464392    0.938833
H     -2.473700   -1.249172   -0.490479
H     -0.829865    0.380174   -1.311304
H      0.422677   -1.683906    0.643229
H      1.627174   -0.372205   -1.880249
H      3.047928    0.922533   -0.423117
H      0.848208    1.914392   -0.979849
H      0.695837    3.300166    0.772951
H      3.028641    0.714765    1.747653
H      2.513772   -2.339815   -1.498844
H     -0.649336   -2.865204   -0.785848
H     -1.680131   -0.405191    2.130149
