43

C     -3.778863   -0.016820    1.126616
C     -2.429600   -0.580284    0.614527
C     -2.704228   -1.350006   -0.700063
C     -1.890047   -1.513897    1.697057
C     -2.465324   -2.678788    2.024897
C     -1.378357    0.523253    0.321976
C     -1.717607    1.890386    0.334135
C     -0.780458    2.886847    0.049883
C      0.551740    2.543978   -0.272751
C      0.920145    1.173401   -0.310280
C     -0.045416    0.176008   -0.017196
O      0.297824   -1.107454   -0.056245
C      1.512585   -1.543762   -0.355590
C      1.765270   -2.926717   -0.365502
C      3.040334   -3.398179   -0.679176
C      4.066522   -2.505343   -0.982711
C      3.833572   -1.123484   -0.977359
C      2.543253   -0.627957   -0.660835
C      2.233837    0.748376   -0.635503
O      3.130154    1.594689   -0.903802
O      4.883326   -0.256996   -1.285736
O      0.761378   -3.847774   -0.065702
O      1.533518    3.514650   -0.562259
C      1.367550    4.928414   -0.571194
O     -1.192659    4.218315    0.090617
H     -3.627911    0.590537    2.045441
H     -4.485359   -0.836967    1.377864
H     -4.274635    0.602847    0.348614
H     -1.824658   -1.943802   -1.021499
H     -3.558486   -2.051090   -0.589340
H     -2.959760   -0.638507   -1.515052
H     -1.011034   -1.215544    2.263005
H     -3.358915   -3.034266    1.524230
H     -2.037507   -3.288842    2.813750
H     -2.719247    2.216894    0.565842
H      3.236805   -4.462880   -0.687412
H      5.049371   -2.890358   -1.223519
H      5.809293   -0.600223   -1.513366
H     -0.181099   -3.562060    0.169489
H      1.068914    5.287673    0.435945
H      0.622947    5.224018   -1.339758
H      2.336985    5.400136   -0.831788
H     -2.144153    4.481579    0.319747
