26

C     -3.633403    0.998805   -0.786182
C     -2.325313    1.448264   -0.983234
C     -1.236441    0.705610   -0.484548
C     -1.483825   -0.493455    0.213813
C     -2.799106   -0.939146    0.408252
C     -3.871117   -0.189804   -0.093496
O     -3.032444   -2.126500    1.100380
O     -0.475047   -1.206814    0.690819
C      0.796723   -0.853702    0.548994
C      1.159275    0.338530   -0.139155
C      0.095970    1.123931   -0.661848
O      0.314229    2.194761   -1.285715
C      2.553330    0.657759   -0.254342
C      3.512501   -0.208159    0.310536
C      3.118579   -1.366139    0.976694
C      1.773098   -1.686269    1.095014
O      4.877647    0.068779    0.218875
O      3.050290    1.795505   -0.902968
H     -4.465479    1.573854   -1.171686
H     -2.170263    2.373703   -1.524103
H     -4.888957   -0.528167    0.053095
H     -3.971689   -2.473477    1.256261
H      3.864087   -2.023439    1.406407
H      1.484634   -2.590745    1.616369
H      5.237466    0.891179   -0.249948
H      2.515256    2.515137   -1.358285
