47

C     -3.036350   -2.164148   -1.474828
C     -3.262158   -1.201727   -0.289919
C     -4.778292   -0.888196   -0.222729
C     -2.923706   -1.923311    1.012314
C     -2.953255   -1.308355    2.201752
C     -2.336546    0.037139   -0.484893
C     -0.936981   -0.094910   -0.246906
C     -0.066335    1.011398   -0.394297
C     -0.561539    2.254247   -0.812441
C     -1.924157    2.375698   -1.108844
C     -2.801293    1.291724   -0.975925
O     -4.128705    1.485374   -1.352546
O      0.321621    3.341691   -0.936699
C     -0.054997    4.650635   -1.352263
C      1.298073    0.829434   -0.123832
C      1.772240   -0.421510    0.276163
C      0.855637   -1.478932    0.369463
O      1.241643   -2.634897    0.689502
O     -0.430984   -1.274349    0.113952
C      3.213920   -0.616225    0.547674
C      3.687339   -0.987087    1.827908
C      5.057218   -1.198902    2.025407
C      5.963200   -1.024513    0.975312
C      5.498361   -0.635353   -0.286179
C      4.133100   -0.430880   -0.498119
O      7.322030   -1.236832    1.196942
O      2.830057   -1.131299    2.920668
H     -3.267576   -1.655238   -2.435688
H     -3.690652   -3.059056   -1.387465
H     -1.983809   -2.515393   -1.516307
H     -5.346602   -1.779262    0.125213
H     -4.984312   -0.060632    0.489627
H     -5.192191   -0.639009   -1.222666
H     -2.640867   -2.972829    0.987466
H     -2.701354   -1.857374    3.103068
H     -3.219259   -0.259117    2.283383
H     -2.319629    3.318286   -1.461734
H     -4.466377    2.372925   -1.706784
H     -0.803352    5.074108   -0.649539
H     -0.469293    4.620051   -2.382084
H      0.842058    5.302999   -1.350527
H      1.996707    1.652663   -0.218783
H      5.420311   -1.488543    3.003697
H      6.193438   -0.495466   -1.104276
H      3.789229   -0.141271   -1.483849
H      8.004207   -1.117712    0.457110
H      1.840185   -0.926044    2.873502
