47

C     -1.377914   -3.358859   -1.764507
C     -1.950336   -2.497589   -0.684976
N     -1.578037   -1.192774   -0.595815
C     -2.028622   -0.369903    0.390829
C     -2.921310   -0.874093    1.349207
C     -3.317672   -2.211422    1.281186
C     -2.827722   -3.033307    0.265017
C     -1.566424    1.033198    0.447395
N     -2.063332    1.951959    1.315593
N     -1.429401    3.078776    1.046573
C     -1.258612    4.274134    1.831246
C     -0.065709    4.982045    1.135107
C      0.459045    4.015624    0.036928
C     -0.524298    2.919862    0.111551
C     -0.542448    1.614933   -0.320079
C      0.392657    0.987941   -1.277942
C      1.255940   -0.078260   -0.922905
C      1.359070   -0.565863    0.396072
C      2.189156   -1.660609    0.698161
C      2.955526   -2.240230   -0.327448
C      2.890096   -1.742891   -1.629786
C      2.052050   -0.667591   -1.933475
N      2.012637   -0.185386   -3.203720
C      1.221138    0.861641   -3.548322
C      0.402977    1.465937   -2.595014
C      2.261209   -2.172089    2.088987
O      1.947492   -1.417244    3.048803
N      2.663103   -3.515375    2.370779
H     -0.657932   -4.078798   -1.322092
H     -0.845592   -2.736977   -2.515716
H     -2.189705   -3.917451   -2.276402
H     -3.299184   -0.246521    2.146492
H     -3.999279   -2.612365    2.020178
H     -3.126351   -4.073281    0.218949
H     -2.180142    4.893469    1.795801
H     -1.002192    4.007561    2.879352
H      0.736430    5.208804    1.870502
H     -0.408092    5.932209    0.670369
H      0.444806    4.486997   -0.968618
H      1.473763    3.639510    0.288789
H      0.789294   -0.106957    1.192694
H      3.633284   -3.058001   -0.123880
H      3.499999   -2.192819   -2.403670
H      1.219621    1.220302   -4.568888
H     -0.238312    2.288409   -2.888624
H      2.779104   -4.224349    1.614366
H      2.760222   -3.832308    3.360954
