22

C      2.792551    0.271558   -0.916603
C      1.374431    0.427118   -0.457917
O      0.995046    1.545356   -0.016856
C      0.447339   -0.727918   -0.535493
C     -0.769001   -0.802199    0.037769
C     -1.289995    0.245095    0.942310
C     -2.556854    0.686020    0.952057
C     -3.590331    0.359080   -0.053924
O     -3.278859   -0.097123   -1.185559
O     -4.930151    0.612437    0.224215
O     -1.552830   -1.938865   -0.172529
C      3.610918   -0.371967    0.159305
O      3.835323   -1.610452    0.122656
O      4.094527    0.380478    1.225604
H      3.224363    1.265922   -1.161652
H      2.827468   -0.343026   -1.842363
H      0.782997   -1.576779   -1.119242
H     -0.618380    0.635649    1.697319
H     -2.840693    1.372651    1.740149
H     -5.219458    0.993685    1.117173
H     -1.250509   -2.701618   -0.767935
H      3.912098    1.374898    1.289560
