23

C     -3.217633    0.319984   -0.166185
C     -2.336223   -0.928902   -0.245873
C     -0.885462   -0.558519   -0.042209
C     -0.152518    0.061133   -1.069338
C      1.181171    0.428069   -0.866901
C      1.802653    0.189434    0.373319
C      1.067969   -0.415501    1.399077
C     -0.265607   -0.782713    1.197984
O      3.137728    0.538295    0.625779
C      3.999539    1.158495   -0.322941
O     -2.494518   -1.552891   -1.494145
H     -2.957910    1.034169   -0.976751
H     -4.285983    0.035616   -0.271989
H     -3.084032    0.821244    0.816435
H     -2.653846   -1.634772    0.557462
H     -0.614948    0.262390   -2.027753
H      1.717995    0.898968   -1.679005
H      1.532961   -0.599279    2.359421
H     -0.813841   -1.241167    2.011653
H      4.123144    0.504041   -1.211564
H      3.586336    2.143219   -0.627592
H      4.994107    1.318875    0.141245
H     -3.381083   -2.000188   -1.482715
