21

C     -2.803202    0.045018   -0.650996
C     -1.907569   -0.866261    0.185861
C     -0.841520   -0.050229    0.881768
O     -1.122346    0.474818    1.994572
C      0.505966    0.180755    0.291151
C      1.547397    0.673826    1.102334
C      2.819578    0.900978    0.568907
C      3.069819    0.644385   -0.779816
C      2.047509    0.162356   -1.598659
C      0.772892   -0.067761   -1.071359
O     -2.699059   -1.534484    1.133845
H     -3.317172    0.786208   -0.001695
H     -2.206129    0.588210   -1.413622
H     -3.571628   -0.562484   -1.174496
H     -1.442733   -1.622353   -0.486210
H      1.381725    0.877024    2.153031
H      3.612438    1.276220    1.203086
H      4.055129    0.821754   -1.191163
H      2.241393   -0.029902   -2.646106
H      0.003370   -0.423509   -1.741243
H     -2.145859   -2.274569    1.498403
