20

C      3.237828    0.572325    0.112384
C      2.808023   -0.849406   -0.094039
O      3.687087   -1.750846   -0.137730
C      1.390131   -1.235787   -0.248649
C      0.380319   -0.358096   -0.217766
C     -1.018278   -0.812841   -0.379276
C     -2.083418    0.011221   -0.359138
C     -1.927368    1.500642   -0.165162
C     -3.431701   -0.572527   -0.532616
O     -4.462534    0.151007   -0.522174
H      2.920286    1.191348   -0.752720
H      2.784276    0.971649    1.043650
H      4.343144    0.635432    0.203790
H      1.173562   -2.288275   -0.393764
H      0.587902    0.692869   -0.073517
H     -1.184615   -1.875786   -0.521870
H     -1.307284    1.925095   -0.982884
H     -2.904027    2.026599   -0.174782
H     -1.443265    1.705439    0.813121
H     -3.550069   -1.640063   -0.672142
