37

C     -4.352366   -0.946894   -1.428993
C     -3.600620    0.380858   -1.332788
C     -2.197434    0.206979   -1.850827
O     -1.968861    0.313731   -3.088694
N     -1.141011   -0.154872   -0.949477
C      0.247975   -0.311403   -1.390243
C      0.872692    1.037888   -1.764742
C      1.076233   -1.027758   -0.347683
O      1.438871   -2.213004   -0.583377
N      1.500283   -0.389728    0.873831
C      0.657086    0.467203    1.695612
C      1.604929    1.195185    2.637881
C      2.891834    0.373590    2.654928
C      2.869824   -0.464103    1.371698
C      3.286265   -1.888776    1.639283
O      2.576459   -2.628976    2.370905
O      4.466808   -2.393797    1.101074
N     -4.302131    1.411435   -2.099153
H     -3.804028   -1.740164   -0.877396
H     -5.362752   -0.844273   -0.975112
H     -4.466483   -1.255322   -2.489741
H     -3.560196    0.687372   -0.264023
H     -1.401175   -0.388389    0.033831
H      0.251032   -0.940138   -2.308194
H      1.942646    0.901533   -2.032447
H      0.806146    1.766547   -0.935816
H      0.352291    1.467653   -2.645564
H     -0.059600   -0.162025    2.269249
H      0.090711    1.201464    1.091926
H      1.170440    1.295679    3.657377
H      1.820553    2.208615    2.232547
H      3.786694    1.033489    2.684256
H      2.897656   -0.266354    3.565170
H      3.545316   -0.002793    0.617805
H      5.068724   -1.820145    0.522795
H     -5.232123    1.579556   -1.649372
H     -3.772688    2.310134   -2.006525
