30

C     -1.285661   -3.760471    0.275559
O     -2.478937   -2.974275    0.274462
C     -2.114589   -1.645011    0.180538
C     -0.757540   -1.532871    0.121339
O     -0.222185   -2.808090    0.177245
C     -0.104788   -0.283381    0.021059
C     -0.953203    0.865992   -0.015137
C     -2.373714    0.728044    0.048061
C     -2.956102   -0.545585    0.147046
C     -3.184984    1.868250    0.010972
C     -2.595513    3.126531   -0.087348
N     -1.244694    3.245178   -0.146680
C     -0.417654    2.164322   -0.113767
C      1.033753    2.364230   -0.181849
O      1.499480    3.533352   -0.269986
C      1.934519    1.195211   -0.146530
C      3.327217    1.382650   -0.211633
C      4.189377    0.290075   -0.179439
C      3.674051   -0.998109   -0.082250
C      2.294255   -1.202878   -0.016605
C      1.393119   -0.112782   -0.047121
H     -1.202853   -4.331455    1.223973
H     -1.273411   -4.441095   -0.601351
H     -4.030023   -0.678960    0.196576
H     -4.264535    1.787031    0.057581
H     -3.214008    4.013591   -0.116691
H      3.751125    2.376234   -0.287632
H      5.259832    0.442608   -0.229988
H      4.347463   -1.845473   -0.057479
H      1.970202   -2.222862    0.057078
