18

C     -0.871511    2.810398    0.301988
N     -1.884299    2.010388   -0.130017
C     -1.295578    0.803831   -0.174451
C     -0.000855    0.878634    0.210251
N      0.292833    2.147970    0.518817
C      0.791909   -0.265601    0.234785
N      0.206429   -1.442072   -0.142027
C     -1.109330   -1.498445   -0.529474
N     -1.873001   -0.363084   -0.547159
N     -1.682474   -2.745316   -0.915229
N      2.165430   -0.230351    0.634445
O      2.902856   -1.366293    0.654065
H     -0.985183    3.875112    0.457498
H      1.198883    2.547275    0.848918
H     -2.682267   -2.798431   -1.211510
H     -1.107517   -3.616804   -0.904980
H      2.610450    0.664452    0.936619
H      3.323225   -1.411663   -0.242539
