34

C     -2.668308    1.106729    1.171019
C     -3.700936    0.782424    0.075662
C     -3.569032   -0.693657   -0.362559
C     -2.156909   -1.252049   -0.072241
C     -1.103810   -0.124681   -0.166410
O     -1.320437    0.949686    0.747865
O      0.186719   -0.683594    0.078396
C      1.409553   -0.013042   -0.093845
C      1.474112    1.307296   -0.576508
C      2.705750    1.940406   -0.733532
C      3.886479    1.270803   -0.415622
C      3.852456   -0.049978    0.062249
C      2.603373   -0.691979    0.223413
O      2.556114   -2.009846    0.685240
C      5.120032   -0.741351    0.406628
O      5.137807   -1.612618    1.316044
O      6.309880   -0.447246   -0.257774
O     -1.863390   -2.269490   -0.995999
O     -4.528725   -1.467543    0.311597
O     -3.498804    1.625331   -1.030808
H     -2.810515    2.158739    1.497101
H     -2.850651    0.468721    2.063418
H     -4.725627    0.954000    0.482452
H     -3.769265   -0.746480   -1.459839
H     -2.136524   -1.665116    0.965255
H     -1.124916    0.275542   -1.204719
H      0.579165    1.856495   -0.832742
H      2.745367    2.959134   -1.097556
H      4.824154    1.800479   -0.521376
H      1.685427   -2.511886    0.810955
H      6.344153    0.177996   -1.053059
H     -1.165954   -2.843703   -0.584139
H     -4.590936   -2.332942   -0.171481
H     -3.835802    2.523423   -0.774168
