43

C      3.101459    1.351313   -0.383872
C      3.229295    0.979994    1.107399
C      4.127875   -0.257706    1.286574
C      3.619677   -1.445698    0.444125
C      3.510323   -1.050373   -1.041501
C      2.585415    0.167326   -1.249367
C      2.593495    0.514415   -2.724154
O      3.421874    1.344319   -3.188731
O      1.725469   -0.143947   -3.591143
O      1.257735   -0.207309   -0.848499
C      0.114937    0.598136   -0.961547
O      0.173015    1.727901   -1.520949
C     -1.157178    0.093614   -0.420436
C     -2.288802    0.811301   -0.461439
C     -3.584007    0.339516    0.087944
C     -4.572051    1.290917    0.391718
C     -5.813774    0.897758    0.903674
C     -6.085418   -0.464603    1.108339
C     -5.111702   -1.420566    0.793215
C     -3.872264   -1.025665    0.282733
O     -7.319828   -0.863063    1.618947
O     -6.763495    1.874465    1.201809
O      4.512215   -2.521452    0.577109
O      4.158365   -0.609618    2.646531
O      1.964674    0.743489    1.673081
H      4.106450    1.666777   -0.743353
H      2.436148    2.233924   -0.487869
H      3.714203    1.831263    1.640355
H      5.156937    0.013644    0.947760
H      2.614802   -1.749318    0.822299
H      4.528127   -0.825118   -1.433716
H      3.113855   -1.917195   -1.615781
H      1.731199    0.056409   -4.584046
H     -1.137967   -0.881327    0.045822
H     -2.260519    1.811409   -0.878894
H     -4.376732    2.345911    0.239364
H     -5.317456   -2.473754    0.937061
H     -3.159004   -1.795021    0.022489
H     -7.539552   -1.840055    1.774236
H     -7.676440    1.641653    1.573818
H      4.032412   -3.332962    0.265211
H      4.986749   -1.137390    2.791358
H      1.519487    1.626688    1.759999
