48

C      3.240503    1.832004   -0.741561
C      2.720278    0.461403   -0.281377
C      3.692403   -0.222657    0.724199
C      3.224844   -1.651587    1.141059
C      1.686746   -1.793921    1.312599
C      0.922155   -0.967095    0.248338
C      1.329655    0.496430    0.393343
C      0.208870    1.283533   -0.329931
C     -1.077210    0.401783   -0.208689
C     -0.606478   -0.983086    0.372642
C     -1.268892   -2.236383   -0.281715
C     -2.740075   -2.007200   -0.716652
C     -3.036941   -0.549332   -1.156760
C     -1.743936    0.152712   -1.575383
C     -3.441694    0.258659    0.039070
C     -4.695314    0.355505    0.496467
C     -2.266626    1.006903    0.599844
O     -2.112813    0.891627    1.997805
C      0.080833    2.695071    0.188752
O      0.067377    2.929677    1.427688
O     -0.061846    3.745334   -0.712491
O      1.385774   -1.314383   -1.060770
C      2.442175   -0.487899   -1.396425
O      3.108525   -0.598140   -2.459167
H      4.267334    1.732265   -1.153257
H      3.270366    2.534777    0.118020
H      2.596969    2.265450   -1.534733
H      4.708422   -0.296006    0.277863
H      3.780378    0.407346    1.636809
H      3.557091   -2.370945    0.360699
H      3.731106   -1.945611    2.085423
H      1.403027   -1.452739    2.332571
H      1.404906   -2.865261    1.225403
H      1.387013    0.798482    1.465521
H      0.470317    1.361028   -1.408412
H     -0.831887   -1.037941    1.456450
H     -1.221441   -3.093260    0.424837
H     -0.701212   -2.546946   -1.184244
H     -3.420315   -2.307970    0.111064
H     -2.963690   -2.687323   -1.567145
H     -3.800436   -0.504826   -1.964267
H     -1.122853   -0.457400   -2.267949
H     -1.976797    1.117795   -2.081918
H     -5.499067   -0.196968    0.020327
H     -4.923700    0.987405    1.348767
H     -2.419134    2.078383    0.348358
H     -2.591782    0.082176    2.315785
H     -0.162928    4.699131   -0.386852
