17

C     -1.892935    0.292034   -0.128656
C     -0.940195   -0.752890   -0.707787
C      0.278102   -1.042685    0.194372
C      1.324168    0.090850    0.296471
C      1.804739    0.499436   -1.034012
N      2.182891    0.820834   -2.079495
N      0.790327    1.248068    1.013568
H     -2.124359    0.066960    0.934107
H     -1.456834    1.308309   -0.211457
H     -2.842110    0.284048   -0.704963
H     -0.615302   -0.439811   -1.722682
H     -1.507653   -1.701392   -0.827398
H      0.789638   -1.944398   -0.209145
H     -0.072971   -1.315064    1.213774
H      2.199264   -0.304496    0.859511
H      0.523365    0.943350    1.978070
H      1.559864    1.946848    1.135722
