25

C     -2.463960   -0.624212    1.198985
N     -1.799478   -0.186160   -0.030661
C     -0.370279   -0.029332   -0.050230
C      0.437101   -0.956135   -0.753025
C      1.831144   -0.783981   -0.764387
C      2.438283    0.273256   -0.070950
C      1.630867    1.180855    0.627497
C      0.233389    1.055029    0.632389
N     -0.555212    2.048029    1.314844
O     -1.680017    2.376032    0.884462
O     -0.014394    2.760346    2.360701
N      3.870253    0.428904   -0.076992
O      4.596021   -0.371292   -0.703193
O      4.465021    1.463160    0.609056
N     -0.138882   -2.081448   -1.444861
O      0.461062   -2.601000   -2.408802
O     -1.287241   -2.681757   -0.983319
N     -2.550085    0.050271   -1.200120
O     -3.784267   -0.138392   -1.210219
O     -1.935628    0.520259   -2.338404
H     -1.735212   -0.727193    2.031837
H     -3.235802    0.117353    1.493030
H     -2.950153   -1.607649    1.030778
H      2.448211   -1.495141   -1.298602
H      2.089257    2.010201    1.150187
