43

C      3.491934   -1.687239   -0.521522
C      2.601510   -0.906356    0.457930
C      3.378944    0.299680    1.019984
C      1.215908   -0.577919   -0.189703
C      1.284450    0.360263   -1.409507
C      0.096732    1.315939   -1.293209
C     -0.216772    1.422995    0.219249
C      0.201807    0.076491    0.777030
C     -1.167363   -0.589219    1.048612
C     -2.049620   -1.161183   -0.155133
C     -3.179096   -0.146535   -0.560871
C     -2.797124    1.341550   -0.381397
C     -1.709479    1.512574    0.698150
O     -1.886784    0.467170    1.631938
C     -2.710437   -2.478338    0.310727
O     -1.269899   -1.442219   -1.289723
C      0.602547    2.581074    0.836238
H      4.424741   -2.015315   -0.014915
H      2.965450   -2.595310   -0.885068
H      3.765749   -1.057803   -1.394669
H      2.402841   -1.585641    1.317273
H      3.675096    1.012004    0.224652
H      2.798459    0.833895    1.796479
H      4.309980   -0.056141    1.510744
H      0.834489   -1.566336   -0.503615
H      1.232974   -0.221212   -2.356109
H      2.218072    0.955673   -1.430771
H      0.331804    2.304619   -1.745198
H     -0.723126    0.872239   -1.883596
H      0.666965    0.202859    1.780042
H     -1.003365   -1.377705    1.816797
H     -4.073214   -0.328533    0.077717
H     -3.513995   -0.316036   -1.607182
H     -3.708175    1.881088   -0.038976
H     -2.535995    1.832306   -1.339319
H     -1.896322    2.480581    1.214626
H     -3.399687   -2.870358   -0.468121
H     -1.933087   -3.248117    0.505915
H     -3.292184   -2.318029    1.244291
H     -1.849089   -1.854809   -1.983397
H      0.533044    2.572391    1.945527
H      1.670825    2.520279    0.546163
H      0.210493    3.554684    0.471918
