27

C     -3.427478   -1.711571    0.042945
C     -2.112564   -2.168770    0.049886
C     -1.044759   -1.259119    0.099221
C      0.266092   -1.739326    0.119963
C      1.350071   -0.857832    0.125828
C      1.134795    0.547299    0.130216
C      2.267004    1.398906   -0.003850
C      3.559388    0.854165   -0.006724
C      3.750932   -0.522084    0.062231
C      2.654177   -1.376325    0.109414
O      2.129054    2.773821   -0.188916
C     -0.200652    1.036626    0.227623
C     -1.295383    0.136474    0.145327
C     -2.643855    0.584489    0.136706
C     -3.692111   -0.345387    0.085803
O     -2.954952    1.944581    0.167271
O     -0.466783    2.389861    0.458175
H     -4.245541   -2.419379    0.004212
H     -1.929628   -3.236560    0.017920
H      0.444841   -2.809857    0.105358
H      4.422650    1.502522   -0.089075
H      4.753653   -0.929678    0.049204
H      2.825533   -2.446437    0.125506
H      2.931116    3.382994   -0.302044
H     -4.720243   -0.006045    0.077727
H     -3.913192    2.274427    0.158169
H      0.157837    3.002205    0.964037
