17

C     -1.719493   -0.924376    0.061344
C     -0.256787   -0.580239    0.044435
C      0.835067   -1.446240    0.121443
C      2.129595   -0.898181    0.087061
C      2.311733    0.496037   -0.022879
C      1.200967    1.352866   -0.099280
C     -0.069472    0.780659   -0.062813
C     -1.374806    1.386495   -0.120586
O     -1.616033    2.618086   -0.220633
N     -2.375973    0.380599   -0.047531
H     -1.996613   -1.415553    1.017864
H     -1.983439   -1.561342   -0.809052
H      0.689303   -2.515293    0.205717
H      2.991239   -1.550400    0.145339
H      3.312063    0.908211   -0.048530
H      1.329489    2.424146   -0.183818
H     -3.406839    0.544525   -0.068082
