38

C      2.542742   -1.572924   -2.167371
C      2.343235   -0.338147   -2.791859
C      2.343340    0.837903   -2.036263
C      2.543187    0.785807   -0.645775
C      2.734477   -0.460628   -0.024045
C      2.741934   -1.633765   -0.785395
C      2.499630    2.049359    0.174812
C      1.065281    2.563482    0.333647
O      0.210585    1.547596    0.854449
C      0.212815    1.141073    2.194352
O      0.933635    1.733040    3.043707
C     -0.602454   -0.043081    2.616986
C     -1.829444   -0.183547    1.765227
C     -3.075414    0.391141    2.002667
N     -3.912133    0.148631    0.967022
C     -3.200218   -0.559055    0.071591
C     -3.623367   -1.013839   -1.176827
C     -2.693860   -1.710547   -1.972279
C     -1.377209   -1.931511   -1.509071
C     -0.979748   -1.460799   -0.245254
C     -1.923436   -0.777801    0.521779
H      2.538478   -2.482762   -2.753725
H      2.186634   -0.292432   -3.861924
H      2.182380    1.788102   -2.531346
H      2.866987   -0.525484    1.049213
H      2.887677   -2.591286   -0.301391
H      2.944821    1.878178    1.179296
H      3.112595    2.832383   -0.321866
H      0.676514    2.877095   -0.658805
H      1.050033    3.455636    0.996417
H      0.019309   -0.959366    2.532803
H     -0.904809    0.069345    3.680788
H     -3.346978    0.972621    2.874400
H     -4.902144    0.469770    0.875411
H     -4.632377   -0.833009   -1.526464
H     -2.988402   -2.078124   -2.946862
H     -0.668889   -2.465993   -2.129114
H      0.024592   -1.627063    0.117800
