50

C      6.935645   -0.595367    1.455684
C      6.348808   -0.720469    0.073099
C      5.036392   -1.017135   -0.045113
C      4.336035   -1.183348   -1.370721
N      2.916551   -1.463013   -1.166474
C      1.997504   -0.463605   -0.701033
C      0.655258   -0.755822   -0.483797
C     -0.183689    0.207797   -0.039646
N      0.222455    1.477428    0.202892
C      1.539197    1.778571   -0.006716
N      2.410725    0.817100   -0.451515
N     -1.416459   -0.296356    0.092811
C     -1.282623   -1.587562   -0.309725
N     -0.009533   -1.912288   -0.668099
C     -2.645334    0.409801    0.459723
C     -3.353021    0.933411   -0.814260
C     -4.890965    0.929788   -0.641451
C     -5.280804    1.227010    0.823248
C     -4.546777    0.251982    1.801998
O     -3.498228   -0.469840    1.169468
C     -5.519808   -0.765094    2.410510
O     -6.462986   -0.110313    3.214053
O     -4.933887    2.550628    1.146064
O     -5.393691   -0.327437   -1.019888
O     -2.897582    2.234561   -1.086881
C      7.237367   -0.521168   -1.134678
O      6.892111    0.670836   -1.782812
H      6.829915   -1.559045    1.997302
H      8.012766   -0.329736    1.422737
H      6.402339    0.199026    2.019028
H      4.448377   -1.152459    0.860554
H      4.444907   -0.266085   -1.987425
H      4.796303   -2.032450   -1.919852
H      2.564658   -2.423689   -1.380651
H      1.896457    2.781934    0.179344
H     -2.105931   -2.288621   -0.356317
H     -2.362876    1.269672    1.114829
H     -3.096429    0.269569   -1.674790
H     -5.333445    1.707952   -1.307409
H     -6.386915    1.117123    0.922305
H     -4.118017    0.828375    2.655030
H     -4.946665   -1.488788    3.032758
H     -6.034420   -1.327586    1.599194
H     -7.054181   -0.819368    3.577596
H     -5.593874    3.141422    0.697354
H     -6.371585   -0.218660   -1.154779
H     -3.112578    2.422772   -2.037734
H      8.305763   -0.474296   -0.830580
H      7.129492   -1.383757   -1.828752
H      7.473274    0.726601   -2.585281
