49

C      2.743371    1.028490   -1.128015
C      2.448323   -0.387815   -0.539770
C      1.580597   -1.196285   -1.533484
C      0.165851   -0.584873   -1.669706
C     -0.549309   -0.367695   -0.295519
C      0.366360    0.370744    0.739587
C      1.721096   -0.366695    0.809052
C      2.769731    0.110721    1.804210
C      4.090928   -0.463105    1.264145
C      3.802017   -1.023164   -0.146878
O      3.713137   -2.425181   -0.077029
C     -0.316153    0.385817    2.117691
C     -1.656166    1.112360    2.053360
C     -2.549432    0.514662    0.991554
C     -3.862958    0.387922    1.256953
C     -4.825525   -0.055753    0.240571
O     -6.039565   -0.188704    0.548467
C     -4.389298   -0.285038   -1.169761
C     -2.912402   -0.686356   -1.216549
C     -1.982236    0.285024   -0.418357
C     -1.929609    1.654322   -1.144006
H      3.370967    1.637431   -0.444881
H      1.830468    1.615033   -1.341047
H      3.297130    0.928600   -2.086113
H      2.070689   -1.226742   -2.530913
H      1.467268   -2.247211   -1.188279
H     -0.427598   -1.284691   -2.293089
H      0.232317    0.363856   -2.235881
H     -0.706985   -1.392061    0.116251
H      0.537952    1.423405    0.440593
H      1.493572   -1.421746    1.101588
H      2.557447   -0.272893    2.826019
H      2.807011    1.221657    1.832691
H      4.475198   -1.259244    1.939267
H      4.854797    0.343111    1.208369
H      4.622975   -0.730079   -0.845015
H      3.908169   -2.770938   -0.987016
H     -0.475670   -0.653567    2.482106
H      0.328250    0.912085    2.854438
H     -1.488455    2.186453    1.822340
H     -2.126980    1.056576    3.059805
H     -4.243867    0.619273    2.244995
H     -5.000457   -1.095497   -1.623061
H     -4.557691    0.639772   -1.760602
H     -2.610806   -0.733523   -2.284314
H     -2.825177   -1.715646   -0.802163
H     -1.717280    1.532080   -2.226285
H     -1.159687    2.321772   -0.709531
H     -2.902312    2.183336   -1.056790
