50

C     -1.641626   -0.551037   -1.876618
C     -1.642802   -0.383668   -0.331040
C     -2.532909   -1.485916    0.311997
C     -4.030050   -1.394749   -0.053468
C     -4.589188    0.042438   -0.177145
C     -3.679931    1.100034    0.464497
C     -2.235973    0.986670    0.013976
C     -1.463533    2.094624    0.091230
C      0.046233    2.079357    0.102299
C      0.678849    0.726125   -0.282858
C     -0.187669   -0.456107    0.263349
C      0.508312   -1.857492    0.131309
C      1.997518   -1.869091    0.563383
C      2.767496   -0.721586   -0.115468
C      2.095732    0.591856    0.301466
C      3.142164    1.678530    0.048763
C      4.465058    0.999332    0.465125
C      4.150794   -0.465602    0.384875
O      4.961225   -1.345570    0.632640
O      4.803558    1.332491    1.784534
C      2.874414   -0.949797   -1.649232
O     -4.806988    0.355222   -1.529878
H     -2.667783   -0.588012   -2.284881
H     -1.150921   -1.491645   -2.191234
H     -1.147993    0.300465   -2.385718
H     -2.443998   -1.422005    1.419732
H     -2.176022   -2.494772    0.013427
H     -4.207984   -1.948215   -1.001836
H     -4.604273   -1.940455    0.727479
H     -5.569538    0.068040    0.355437
H     -4.087362    2.108470    0.229261
H     -3.709584    0.981499    1.569453
H     -1.926142    3.043180    0.351220
H      0.357912    2.359590    1.132088
H      0.418078    2.870188   -0.583980
H      0.749233    0.694621   -1.386328
H     -0.285179   -0.291206    1.362671
H     -0.019976   -2.589671    0.777579
H      0.437353   -2.246111   -0.901094
H      2.057414   -1.769806    1.670200
H      2.453472   -2.847042    0.295038
H      1.969005    0.583686    1.414049
H      2.936417    2.590900    0.650200
H      3.165716    1.953410   -1.027924
H      5.290606    1.256082   -0.237332
H      5.183723    2.248898    1.752990
H      3.454896   -1.875708   -1.851222
H      1.889254   -1.067726   -2.139560
H      3.397921   -0.108642   -2.150745
H     -5.444929    1.115918   -1.554469
