30

C     -4.235467    1.287989    0.780099
C     -2.925645    1.723415    0.970000
C     -1.851806    1.017898    0.400855
C     -2.102897   -0.133482   -0.380402
C     -3.436766   -0.602523   -0.512880
C     -4.488040    0.130175    0.047701
O     -3.756740   -1.799712   -1.157274
C     -0.958076   -0.766569   -1.084872
O     -1.148657   -1.372125   -2.173137
C      0.427791   -0.524980   -0.606327
C      0.674319    0.627490    0.172825
C     -0.458494    1.472301    0.620268
O     -0.236778    2.565900    1.209824
C      1.991857    0.963719    0.526787
C      3.066278    0.166833    0.116119
C      2.816693   -1.006553   -0.603672
C      1.512350   -1.372706   -0.949558
O      1.337232   -2.597831   -1.597258
C      4.470338    0.521530    0.523355
O      4.738561    0.027542    1.806803
H     -5.057136    1.839206    1.219102
H     -2.753119    2.612566    1.563477
H     -5.507812   -0.215947   -0.065159
H     -3.072505   -2.500889   -1.405201
H      2.187103    1.846945    1.123363
H      3.638970   -1.656428   -0.878595
H      0.440461   -3.052543   -1.699364
H      5.208689    0.122330   -0.209267
H      4.591465    1.625770    0.533198
H      4.887833   -0.949321    1.709190
