22

C      3.545260    0.097240    0.148647
C      2.051293    0.229705    0.033606
C      1.515460    1.352711   -0.463510
C      0.060258    1.499626   -0.642886
O     -0.361233    2.498588   -1.281675
C     -0.867168    0.443675   -0.144093
C     -0.297213   -0.775022    0.299292
C      1.177732   -0.914393    0.379362
O      1.693119   -2.005661    0.747004
C     -1.128869   -1.846910    0.663820
C     -2.513594   -1.718080    0.599944
C     -3.085327   -0.511156    0.206308
C     -2.283751    0.583316   -0.135587
O     -2.939022    1.782633   -0.424704
H      4.035287    1.091426    0.229993
H      3.811728   -0.484426    1.056119
H      3.939300   -0.427101   -0.746854
H      2.157340    2.170561   -0.770736
H     -0.708322   -2.788322    0.994658
H     -3.147183   -2.551205    0.876005
H     -4.163806   -0.414379    0.194162
H     -2.491292    2.687175   -0.421765
