30

C      1.471039    0.999876   -1.218158
C      0.867228    0.079188   -0.383509
C     -0.427234    0.529201   -0.158580
C     -0.557731    1.698894   -0.898291
N      0.597855    1.972930   -1.534784
C     -1.804786    2.523299   -1.073057
N     -2.463269    2.213281   -2.339575
C     -1.487756   -0.154683    0.659217
C     -2.362020   -0.991150   -0.218513
O     -3.555270   -0.648385   -0.434700
O     -1.852671   -2.145601   -0.805072
C      1.531508   -1.129396    0.209667
C      2.152562   -0.788625    1.565861
C      2.782308   -2.001631    2.173649
O      3.933182   -2.364804    1.810133
O      2.079328   -2.751822    3.111323
H      2.489897    0.956923   -1.581463
H      0.782871    2.782607   -2.167531
H     -1.533050    3.600405   -1.058619
H     -2.515726    2.351150   -0.239372
H     -1.803620    2.428517   -3.122974
H     -2.669400    1.188296   -2.372906
H     -1.023157   -0.804605    1.428987
H     -2.093769    0.599527    1.203771
H     -2.432313   -2.725364   -1.400598
H      2.323487   -1.487856   -0.483696
H      0.788763   -1.947713    0.323094
H      2.924873    0.001752    1.438328
H      1.371226   -0.399964    2.254607
H      2.485646   -3.584246    3.521365
