21

C     -2.844744    0.043852    0.258567
C     -1.728502   -0.446791    1.149945
O     -1.943066   -0.509608    2.351231
C     -0.346007   -0.821828    0.644716
C      0.536441    0.436609    0.456466
C      1.997955    0.097615    0.238380
O      2.313261   -0.955541   -0.379267
C      3.063671    1.021371    0.676182
O      2.767544    2.116912    1.222271
O      4.407071    0.702437    0.489782
O      0.064008    1.248780   -0.589045
O     -0.428797   -1.559615   -0.548326
O     -2.469140    0.063937   -1.090187
H     -3.130213    1.070240    0.579597
H     -3.722663   -0.627330    0.387377
H      0.143568   -1.456142    1.422346
H      0.463953    1.025619    1.397188
H      4.694578   -0.167113    0.057318
H      0.215035    0.762566   -1.441758
H     -0.798270   -2.449945   -0.309524
H     -3.255685    0.403977   -1.590767
