35

C     -0.935938    3.091116   -0.601351
O     -1.850968    2.220661    0.025496
C     -1.496100    0.868324   -0.217150
C     -2.722028    0.013200   -0.446070
C     -2.336508   -1.331974    0.190636
O     -1.208394   -1.148070    1.023071
C     -0.890120    0.225514    1.023955
N      0.562629    0.403541    1.055579
C      1.268187    1.283251    1.812574
N      2.609052    1.245664    1.576608
C      2.716742    0.297736    0.626406
C      3.849183   -0.175720   -0.026496
N      3.674567   -1.144593   -0.974741
C      2.428422   -1.633863   -1.275718
N      1.322067   -1.159284   -0.628051
C      1.499492   -0.201319    0.313495
N      5.153053    0.324460    0.269848
C     -2.012133   -2.387738   -0.876729
O     -1.603841   -3.586265   -0.274568
O     -3.872455    0.555262    0.163209
H     -1.191081    4.134035   -0.323106
H      0.106338    2.896904   -0.266254
H     -1.008953    3.007307   -1.708063
H     -0.817874    0.724653   -1.096052
H     -2.922837   -0.078102   -1.536979
H     -3.177342   -1.716655    0.809827
H     -1.334736    0.679947    1.938880
H      0.812844    1.957812    2.526115
H      2.320252   -2.399545   -2.031402
H      5.293590    1.065142    0.992461
H      5.985716   -0.048952   -0.237366
H     -1.190145   -2.021917   -1.528035
H     -2.902744   -2.567592   -1.521555
H     -2.423454   -4.018674    0.081770
H     -3.704483    0.625733    1.139760
