44

C      0.411236   -2.196669    0.349060
N     -0.267456   -2.135593   -0.963344
C     -1.540374   -2.883822   -0.935003
C     -2.534973   -2.278864    0.066904
C     -2.601292   -0.776121   -0.025979
C     -3.666487   -0.113921    0.622080
C     -3.755144    1.265309    0.497827
C     -2.860389    1.978013   -0.224090
C     -1.787892    1.377358   -0.871646
C     -1.606349   -0.022805   -0.727187
C     -0.499386   -0.758380   -1.483400
C      0.818541    0.039654   -1.731333
C      1.633133    0.441034   -0.516057
C      2.925919   -0.033856   -0.654873
C      3.874412    0.227832    0.321640
C      3.543143    0.969208    1.411943
C      2.254933    1.493902    1.592971
C      1.279375    1.231506    0.602174
O      4.649466    1.088034    2.230702
C      5.736673    0.378150    1.616076
O      5.197944   -0.156184    0.397336
C      2.985012   -0.780772   -1.879811
O      3.991456   -1.383533   -2.335398
O      1.739707   -0.757810   -2.491896
O     -3.205685    3.315510   -0.195256
C     -4.390513    3.449859    0.601613
O     -4.708201    2.116386    1.023182
H      0.072087   -1.386164    1.029096
H      1.506329   -2.140523    0.207363
H      0.233837   -3.171497    0.853711
H     -1.996887   -2.888268   -1.949928
H     -1.353050   -3.949474   -0.677827
H     -3.540660   -2.710993   -0.127978
H     -2.243939   -2.560734    1.101476
H     -4.412036   -0.660760    1.185701
H     -1.121805    1.993002   -1.456357
H     -0.912135   -0.878075   -2.510915
H      0.607573    0.951269   -2.327389
H      2.015508    2.087212    2.465407
H      0.285873    1.633431    0.717001
H      6.077846   -0.445913    2.277153
H      6.571034    1.075451    1.392232
H     -4.187952    4.092554    1.483900
H     -5.218432    3.866058   -0.009789
