13

O     -1.870700   -0.344627   -0.574892
P     -1.195058   -0.212357    0.972237
O     -2.167027   -0.783713    1.979430
O     -0.919401    1.417933    1.342554
O      0.251113   -1.105914    1.049313
P      1.418586   -0.287304    0.118261
O      1.846011    0.982887    0.821278
O      0.827817    0.076077   -1.428661
O      2.768514   -1.292552   -0.051551
H     -2.687481    0.214628   -0.544762
H     -1.803447    1.853886    1.246711
H      0.506105    1.011341   -1.373169
H      3.024967   -1.530284    0.875154
