28

C     -1.144255   -0.768393   -1.439152
C     -1.571372    0.618161   -0.964108
C     -2.347978    0.499782    0.367909
N     -1.545061   -0.169720    1.402415
C     -1.103836   -1.498629    0.951318
C     -0.277632   -1.383953   -0.344111
C      0.931692   -0.507535   -0.099592
C      2.098563   -1.102868    0.403270
C      3.197518   -0.312925    0.718002
C      3.129795    1.063228    0.540078
C      1.957210    1.641325    0.046260
O      1.923296    2.891920   -0.120559
N      0.863507    0.863492   -0.256163
C     -0.328481    1.528501   -0.839961
H     -0.572150   -0.695008   -2.390960
H     -2.037656   -1.403918   -1.628963
H     -2.255873    1.060019   -1.721686
H     -2.628912    1.514240    0.724738
H     -3.294696   -0.062041    0.198112
H     -2.150967   -0.300864    2.245756
H     -1.982446   -2.163238    0.786939
H     -0.480312   -1.963706    1.745805
H      0.038897   -2.399444   -0.670906
H      2.150883   -2.173469    0.559136
H      4.100818   -0.767255    1.104283
H      3.987229    1.679530    0.781791
H     -0.595886    2.426898   -0.240464
H     -0.061900    1.885870   -1.859188
