42

C      0.922078    3.513421   -0.068502
C      0.067468    2.395456   -0.570001
O     -0.109564    2.261651   -1.810932
N     -0.492500    1.450537    0.354177
C     -1.266550    0.279470   -0.069445
C     -2.568718    0.195582    0.751694
C     -3.320600   -1.110564    0.441925
C     -2.346277   -2.304510    0.585983
O     -1.229755   -2.135702   -0.273271
C     -0.448893   -1.019989    0.119968
O      0.709121   -0.989889   -0.719558
C      1.936796   -0.365020   -0.438190
C      2.841030   -0.199562   -1.492618
C      4.072859    0.426968   -1.286223
C      4.429309    0.895000   -0.010866
C      3.528447    0.716273    1.053568
C      2.295736    0.090597    0.845420
N      5.696410    1.544606    0.199179
O      6.017057    1.964851    1.330391
O      6.575813    1.716372   -0.845351
C     -3.022906   -3.641716    0.248589
O     -3.420054   -3.679941   -1.097096
O     -4.392465   -1.243024    1.341491
O     -3.387636    1.314047    0.513145
H      0.529289    3.888799    0.899506
H      1.960145    3.148714    0.074676
H      0.928454    4.350766   -0.797982
H     -0.279543    1.564444    1.371383
H     -1.535675    0.361615   -1.146333
H     -2.303885    0.194854    1.833282
H     -3.691149   -1.060189   -0.610322
H     -2.011687   -2.378580    1.647948
H     -0.141401   -1.146407    1.180851
H      2.581604   -0.549925   -2.483701
H      4.744971    0.546053   -2.126044
H      3.775892    1.062725    2.048809
H      1.639460   -0.025643    1.693690
H     -3.884061   -3.832239    0.930032
H     -2.292647   -4.461337    0.418751
H     -4.361387   -3.366996   -1.129713
H     -5.129950   -1.693905    0.853493
H     -3.614638    1.322339   -0.453562
