23

C      2.402506   -0.956462    0.318610
C      1.003004   -0.433135   -0.052028
C      0.477914    0.621494    0.962746
C     -0.949585    1.123341    0.628088
C     -1.957135   -0.001491    0.713965
O     -2.280707   -0.447604    1.847903
C     -2.549154   -0.606473   -0.497104
O     -2.221560   -0.191724   -1.640086
O     -3.473428   -1.644107   -0.397051
O     -1.304760    2.131631    1.539179
O      1.373033    1.702981    1.071828
O      0.991866    0.069428   -1.366393
O      2.359114   -1.615855    1.554132
H      3.129475   -0.114769    0.363960
H      2.740238   -1.669160   -0.466884
H      0.318715   -1.308761   -0.028699
H      0.433788    0.136768    1.963259
H     -0.940662    1.557488   -0.398243
H     -3.767742   -2.012730    0.499202
H     -2.092558    2.600493    1.156774
H      1.299882    2.246412    0.244744
H      1.722608    0.735939   -1.446564
H      3.285148   -1.923703    1.734625
