46

C      4.289741    0.153537   -2.052888
C      4.369991    0.143180   -0.557984
C      3.324302    0.204923    0.343668
N      3.840736    0.270987    1.592039
N      5.163481    0.237014    1.529777
C      5.509815    0.169475    0.228555
C      6.922761    0.134653   -0.254776
C      3.106433    0.383439    2.848599
C      1.888730    0.285262   -0.000041
C      1.006118   -0.655094    0.411901
C      1.462813   -1.863946    1.063154
N      1.826921   -2.832013    1.582346
C     -0.449686   -0.517896    0.185775
C     -1.142414    0.597783    0.673223
C     -2.520872    0.714307    0.482249
C     -3.252954   -0.287246   -0.193870
C     -2.541338   -1.416216   -0.664810
C     -1.161753   -1.528847   -0.471428
C     -4.774730   -0.120169   -0.385036
C     -5.459287   -0.023414    0.995673
C     -5.054548    1.169194   -1.187650
C     -5.423534   -1.299007   -1.149909
O      1.495532    1.358517   -0.805317
H      5.164260   -0.372329   -2.489270
H      4.275931    1.202517   -2.414474
H      3.366256   -0.362026   -2.390195
H      7.623142    0.256771    0.598044
H      7.123061   -0.838212   -0.749995
H      7.091357    0.958419   -0.979497
H      2.155976    0.937439    2.697279
H      3.716646    0.936077    3.593822
H      2.887850   -0.628858    3.245929
H     -0.613863    1.378617    1.206781
H     -3.013561    1.594692    0.871525
H     -3.031431   -2.225201   -1.185119
H     -0.645778   -2.405201   -0.844881
H     -6.562596    0.055322    0.884213
H     -5.232991   -0.926409    1.603112
H     -5.118017    0.870053    1.559065
H     -6.143737    1.288213   -1.375846
H     -4.532269    1.134676   -2.168279
H     -4.712000    2.073019   -0.641913
H     -6.517034   -1.137239   -1.269544
H     -5.287424   -2.253385   -0.596632
H     -4.988076   -1.398224   -2.167777
H      0.568040    1.451257   -1.199595
