42

C     -5.358906   -0.007739   -1.541127
C     -4.212417    0.526272   -0.675320
C     -2.961817    0.665118   -1.524236
C     -1.753628    0.338939   -1.056566
C     -1.600124   -0.289647    0.269252
C     -2.756171   -0.651765    0.969028
O     -4.013189   -0.382355    0.417686
C     -2.660726   -1.297940    2.201447
C     -1.408067   -1.577384    2.764519
C     -0.229305   -1.209346    2.072974
C     -0.334623   -0.565890    0.814611
O      0.761901   -0.220931    0.144344
C      1.996021   -0.446152    0.587369
C      2.178961   -1.067419    1.832700
C      1.064286   -1.452748    2.577522
O      1.239757   -2.010074    3.694712
C      3.143097   -0.014106   -0.250773
C      4.392454   -0.659367   -0.187379
C      5.460644   -0.245296   -0.993702
C      5.280964    0.835027   -1.888733
C      4.034963    1.465400   -1.961383
C      2.974952    1.044734   -1.156812
O      6.301161    1.308062   -2.716557
O      6.669999   -0.933864   -0.877249
O     -1.343653   -2.217737    4.002715
C     -4.583655    1.901778   -0.106699
H     -6.281200   -0.121616   -0.931825
H     -5.573982    0.683368   -2.384975
H     -5.091606   -1.003463   -1.956016
H     -3.033704    1.138190   -2.496730
H     -0.883763    0.527850   -1.673691
H     -3.565441   -1.578658    2.726014
H      3.168827   -1.230487    2.239077
H      4.543338   -1.506801    0.467957
H      3.887460    2.290294   -2.647178
H      2.024341    1.558163   -1.235206
H      7.236618    0.928277   -2.733324
H      7.495361   -0.721471   -1.418773
H     -2.179947   -2.486733    4.507940
H     -4.772839    2.629807   -0.925308
H     -5.497759    1.825496    0.520425
H     -3.758583    2.289189    0.529271
