31

C     -4.317803    1.534016    0.045457
C     -2.971300    0.867813   -0.020589
C     -2.874466   -0.521882   -0.216323
C     -1.601852   -1.144058   -0.269465
C     -0.431112   -0.360276   -0.096335
C     -0.558692    1.017662    0.143184
C     -1.811342    1.623569    0.177655
C      0.928458   -0.949918   -0.217825
O      1.152440   -1.824457   -1.098178
C      2.064535   -0.510029    0.670293
C      3.060559    0.409460   -0.070544
C      3.812435   -0.347708   -1.135154
O      4.604718   -1.275560   -0.821372
O      3.624753   -0.031266   -2.474798
N      4.001924    1.016086    0.878250
N     -1.501176   -2.563919   -0.457676
O     -4.057813   -1.259891   -0.325070
H     -4.941436    1.218461   -0.817589
H     -4.226807    2.640777    0.013601
H     -4.827989    1.246389    0.988584
H      0.314736    1.641100    0.277988
H     -1.873863    2.690288    0.355081
H      1.654991    0.018912    1.558043
H      2.592639   -1.409620    1.055612
H      2.491872    1.228459   -0.565001
H      3.480616    1.613400    1.560682
H      4.681530    1.624576    0.365671
H      4.526988    0.277514    1.401651
H     -2.200305   -3.093356   -1.021671
H     -0.706915   -3.107492   -0.054160
H     -4.090323   -2.269051   -0.365336
