43

C     -7.156981    0.726562    0.439865
C     -6.680739    1.662362   -0.482202
C     -5.363826    1.587020   -0.944975
C     -4.511652    0.571003   -0.483841
C     -3.187644    0.485114   -0.941254
C     -2.335755   -0.529615   -0.468927
C     -2.833303   -1.478777    0.435803
C     -4.149495   -1.401402    0.898083
C     -4.995756   -0.378908    0.447736
C     -6.320203   -0.292228    0.904362
N     -0.982381   -0.649110   -0.938901
C     -0.133204    0.469852   -1.238134
O     -0.473217    1.640284   -0.915872
C      1.204848    0.241067   -1.871171
N      2.103540   -0.416176   -0.926159
C      2.657968    0.267241    0.208938
O      2.392518    1.484787    0.403195
C      3.557306   -0.453636    1.181412
C      4.851702   -0.966013    0.504785
C      5.737012    0.157643   -0.058459
C      6.317064    1.011161    1.031610
O      7.296298    0.590654    1.702261
O      5.767193    2.254341    1.331130
N      2.819702   -1.555187    1.803843
H     -8.177662    0.790058    0.794295
H     -7.333908    2.448098   -0.839177
H     -5.011952    2.321706   -1.659365
H     -2.831330    1.190930   -1.681113
H     -2.192914   -2.275755    0.792646
H     -4.505519   -2.141367    1.605032
H     -6.707429   -1.011133    1.616621
H     -0.557352   -1.603521   -0.974198
H      1.069619   -0.406523   -2.763848
H      1.650569    1.200338   -2.213613
H      2.347738   -1.417406   -1.095242
H      3.841888    0.257741    1.988882
H      5.443029   -1.553081    1.241789
H      4.593684   -1.659854   -0.324062
H      5.161567    0.785124   -0.771885
H      6.572383   -0.300504   -0.630739
H      4.973782    2.616367    0.816302
H      2.687435   -2.328124    1.111413
H      3.395378   -1.941132    2.587411
