35

C     -1.353612    1.641280    1.098308
C     -0.071707    1.449301    1.621523
C      0.763053    0.451868    1.105685
C      0.286496   -0.380244    0.077038
C     -0.995066   -0.189502   -0.447307
C     -1.820841    0.829846    0.052629
C     -3.214022    1.020275   -0.490626
C     -4.275447    0.354275    0.411423
C     -5.660389    0.706591   -0.061139
O     -6.412588    1.401378    0.671999
O     -6.126555    0.284597   -1.304361
N     -4.128889   -1.103634    0.450538
O      2.036481    0.281326    1.668612
C      3.169035   -0.192489    0.990038
C      3.372993    0.052558   -0.380546
C      4.523744   -0.422563   -1.017082
C      5.487042   -1.134735   -0.289820
C      5.295201   -1.363057    1.076612
C      4.144873   -0.888002    1.714127
O      6.636903   -1.614238   -0.912987
H     -1.983832    2.420061    1.509818
H      0.277100    2.081817    2.427950
H      0.895356   -1.189265   -0.304432
H     -1.347364   -0.843417   -1.235427
H     -3.423234    2.110918   -0.560067
H     -3.279228    0.617757   -1.525390
H     -4.155307    0.747902    1.446876
H     -5.551915   -0.269557   -1.927109
H     -3.989407   -1.474356   -0.517644
H     -3.273649   -1.343175    1.002626
H      2.654616    0.625729   -0.951663
H      4.669187   -0.230529   -2.072521
H      6.038689   -1.907198    1.645097
H      4.006858   -1.067477    2.772816
H      6.805425   -1.464044   -1.900878
