26

C      3.268565   -1.587311    0.429814
C      1.957305   -1.987156    0.117101
C      0.976734   -1.001584    0.057123
C     -0.377521   -1.074138   -0.219801
C     -1.257268   -2.108296   -0.533289
C     -2.612182   -1.755144   -0.752735
N     -3.027577   -0.444208   -0.657252
C     -2.141587    0.552309   -0.347667
C     -0.823867    0.208019   -0.134349
N      0.137911    1.088479    0.174508
C      1.264212    0.340594    0.295441
C      2.561741    0.754888    0.607382
C      3.570682   -0.226739    0.673525
O      4.751791    0.110187    0.952099
C     -0.136518    2.419185    0.300483
O      0.765912    3.248325    0.590668
C     -1.468132    2.852065    0.096448
C     -2.476901    1.911973   -0.229760
H      4.051795   -2.333296    0.483344
H      1.721113   -3.026649   -0.070187
H     -0.922398   -3.134666   -0.606168
H     -3.328727   -2.528293   -0.998694
H     -4.033360   -0.215873   -0.824663
H      2.795257    1.794002    0.794112
H     -1.721216    3.900848    0.188483
H     -3.495765    2.242478   -0.385965
