31

C     -3.469281   -0.808425   -0.481438
C     -2.051618   -0.551004    0.047577
C     -1.259132   -1.843927    0.181793
C      0.207995   -1.443746    0.086006
C      0.263788   -0.039778   -0.551933
C     -1.203690    0.317236   -0.888228
C     -1.513452    1.822723   -0.761942
O     -0.955606    2.351312    0.437448
C      0.333524    2.023728    0.858088
C      0.972862    0.945723    0.374991
C      2.391895    0.699898    0.733518
O      2.981787    1.444359    1.565596
O      3.079360   -0.361889    0.135962
C      4.436542   -0.664036    0.435194
O     -1.025591    2.527458   -1.875778
H     -4.004141   -1.503201    0.200472
H     -3.439833   -1.258273   -1.497051
H     -4.044802    0.138889   -0.526029
H     -2.119625   -0.070853    1.050562
H     -1.479398   -2.349607    1.147399
H     -1.500040   -2.540398   -0.652838
H      0.649886   -1.456793    1.107512
H      0.765916   -2.177202   -0.536680
H      0.841863   -0.086764   -1.502062
H     -1.404321    0.003669   -1.939246
H     -2.611071    1.978894   -0.730567
H      0.809440    2.673164    1.581540
H      4.543640   -0.902217    1.514653
H      4.753452   -1.544521   -0.160412
H      5.084685    0.199327    0.174557
H     -0.035035    2.476254   -1.854904
