20

C     -1.589596   -1.549765    0.059888
C     -0.653029   -0.508010   -0.552404
C     -0.484525    0.710203    0.330026
O      0.840718    1.112397    0.174922
C      1.505454    0.026733   -0.433739
O      0.623908   -1.041902   -0.694726
C      2.632394   -0.453729    0.472123
C     -1.426210    1.849938   -0.059430
H     -2.600427   -1.114366    0.208775
H     -1.196297   -1.903067    1.037327
H     -1.676918   -2.421141   -0.623009
H     -1.032010   -0.228285   -1.561993
H     -0.647298    0.456369    1.402046
H      1.944363    0.371603   -1.395390
H      3.178301   -1.290138   -0.013602
H      3.345281    0.376346    0.662589
H      2.218702   -0.805624    1.441234
H     -2.483060    1.521630    0.034502
H     -1.236001    2.174388   -1.105060
H     -1.263750    2.716421    0.615921
