19

C     -2.229280   -0.087595    0.225847
C     -1.414280    1.109055   -0.302997
C     -0.010843    0.641858   -0.245026
C      1.126259    1.362663   -0.619317
C      2.383712    0.752117   -0.493817
C      2.485382   -0.560798    0.000520
C      1.329830   -1.266158    0.370483
C      0.088330   -0.638815    0.237170
C     -1.234454   -1.213129    0.571348
H     -2.801965    0.209119    1.131677
H     -2.946940   -0.435013   -0.549263
H     -1.548806    2.000530    0.346802
H     -1.695243    1.349995   -1.350884
H      1.040728    2.372677   -0.998975
H      3.277040    1.292858   -0.778080
H      3.456783   -1.028268    0.095868
H      1.400770   -2.276744    0.751620
H     -1.426730   -2.117455   -0.045326
H     -1.280294   -1.466895    1.652350
