11

C     -1.289530    0.492167   -0.174111
C     -0.225848   -0.567817   -0.434420
C      0.961365   -0.350469    0.448796
O      1.014111   -0.898219    1.582429
O      1.988023    0.492244    0.034624
H     -0.883049    1.505593   -0.380136
H     -2.160083    0.316341   -0.840584
H     -1.633902    0.442190    0.881143
H      0.091809   -0.518126   -1.497968
H     -0.654372   -1.576279   -0.247449
H      2.791477    0.662375    0.627676
