16

C      2.562612   -0.368724    0.171439
C      1.744979    0.909237    0.027427
C      0.315977    0.587073   -0.272451
O     -0.066690    0.499070   -1.470983
O     -0.568320    0.348461    0.782131
P     -2.211338   -0.090176    0.529230
O     -2.911645   -0.180016    1.865619
O     -2.288184   -1.594988   -0.241848
O     -2.971415    1.082907   -0.425213
H      3.618669   -0.110666    0.397429
H      2.533614   -0.953610   -0.772872
H      2.163188   -0.990938    1.000945
H      1.800941    1.491411    0.972100
H      2.170977    1.531730   -0.789073
H     -2.016232   -1.416343   -1.176937
H     -3.877135    0.720800   -0.596944
