14

C     -0.136592   -1.493657   -0.507409
C     -0.734652   -0.182732    0.045715
C      0.456066    0.777813    0.255224
C      1.561334    0.061733   -0.411895
O      2.720091    0.530884   -0.560310
O      1.205105   -1.194716   -0.844694
O      0.232412    2.010664   -0.373348
O     -1.403463   -0.424482    1.255333
H     -0.147093   -2.296786    0.261128
H     -0.686601   -1.837003   -1.409511
H     -1.444894    0.231114   -0.708768
H      0.702499    0.913864    1.333440
H     -0.411516    2.501577    0.200790
H     -1.912695    0.401726    1.464305
