31

C     -1.893917    0.836115    1.625456
C     -1.171141    0.452094    0.322900
C     -0.197217    1.593205   -0.072077
C      0.724085    1.280028   -1.268399
C      1.455067   -0.034170   -1.139001
C      2.460464   -0.288944   -0.273354
C      2.974266    0.752576    0.690050
C      3.041008   -1.656861   -0.217714
O      2.920590   -2.436842   -1.200409
O      3.721277   -2.112150    0.911217
C     -2.180333    0.149955   -0.815458
C     -3.125588   -1.020365   -0.517989
O     -2.391348   -2.177204   -0.225740
H     -2.590544    1.684328    1.452529
H     -2.461102   -0.026961    2.030471
H     -1.159101    1.131690    2.404583
H     -0.576256   -0.462868    0.534427
H      0.437905    1.851006    0.800904
H     -0.783119    2.507299   -0.313524
H      1.448801    2.108227   -1.413427
H      0.116579    1.258897   -2.197190
H      1.119969   -0.821201   -1.804809
H      4.054589    0.592266    0.889073
H      2.885885    1.780736    0.287356
H      2.417463    0.681170    1.647584
H      3.789653   -1.566978    1.761205
H     -1.629643   -0.109504   -1.743209
H     -2.787529    1.056832   -1.028732
H     -3.804110   -0.768738    0.325761
H     -3.757533   -1.201654   -1.415911
H     -3.059122   -2.886472   -0.036573
