42

C      6.674739   -0.194562    0.608405
O      5.770246   -0.772707   -0.327186
C      4.376752   -0.601742   -0.299007
C      3.596184   -1.230708   -1.283598
C      2.207004   -1.068848   -1.291194
C      1.569355   -0.271075   -0.322158
C      2.346719    0.320824    0.690750
C      3.741315    0.175398    0.686544
C      1.677407    1.162630    1.741534
C      0.301077    0.584697    2.081644
N     -0.504406    0.383860    0.864185
C      0.089792   -0.062150   -0.294281
C     -0.696218   -0.252546   -1.445755
C     -2.077242   -0.044146   -1.392990
C     -2.870094   -0.236523   -2.533687
C     -4.248368   -0.026024   -2.474956
C     -4.854055    0.374274   -1.280881
C     -4.072488    0.559970   -0.124750
C     -2.675823    0.363183   -0.183673
C     -1.857420    0.570142    0.936452
O     -4.683054    0.946651    1.070895
C     -5.197946   -0.016939    1.980759
O     -6.232325    0.587499   -1.263914
O      4.184516   -2.026312   -2.267026
H      6.606464    0.913213    0.571233
H      7.709434   -0.495290    0.345187
H      6.448881   -0.558476    1.632983
H      1.639687   -1.593291   -2.046594
H      4.322038    0.665938    1.456242
H      1.561146    2.197967    1.354712
H      2.290953    1.199531    2.668158
H     -0.203360    1.285742    2.783476
H      0.424331   -0.390854    2.601132
H     -0.245719   -0.534579   -2.387488
H     -2.424308   -0.547811   -3.471044
H     -4.849845   -0.172224   -3.363257
H     -2.303589    0.887826    1.871967
H     -5.639480    0.505289    2.853973
H     -5.984776   -0.626160    1.488070
H     -4.381409   -0.682174    2.332903
H     -6.720695    0.901420   -0.434185
H      5.184582   -2.180914   -2.310663
