25

C      3.669110    0.106663    0.458345
C      2.185954    0.021385    0.224756
C      1.633022   -0.971929   -0.613708
C      0.248124   -1.024532   -0.810684
C     -0.606158   -0.101300   -0.185361
C     -0.048573    0.884068    0.647404
C      1.331544    0.943832    0.849435
C     -2.104480   -0.177843   -0.413777
C     -2.850100   -0.454269    0.897204
C     -2.626772    1.096657   -1.087490
O      2.429525   -1.917638   -1.263091
H      3.929461    0.943192    1.141361
H      4.031915   -0.837034    0.917199
H      4.192158    0.275420   -0.506373
H     -0.159707   -1.792475   -1.456694
H     -0.680793    1.609316    1.143000
H      1.732289    1.714291    1.496616
H     -2.331726   -1.023867   -1.100468
H     -2.736161    0.390301    1.609429
H     -2.457117   -1.379433    1.370633
H     -3.932578   -0.601132    0.694945
H     -2.074076    1.280759   -2.033603
H     -3.704500    0.982839   -1.331998
H     -2.507343    1.979185   -0.423844
H      3.436982   -1.946456   -1.172223
