29

C      4.809238   -0.084580    0.462155
C      3.359136    0.208948    0.835492
C      2.396290   -0.291739   -0.247106
C      0.940803    0.005091    0.131786
C     -0.022892   -0.494922   -0.949604
C     -1.448130   -0.197852   -0.566310
C     -2.181908   -1.118565    0.199251
C     -3.498126   -0.828295    0.584555
C     -4.079941    0.387786    0.212387
C     -3.352583    1.317622   -0.537432
C     -2.036413    1.026638   -0.922364
O     -3.944953    2.527338   -0.892863
O     -4.234360   -1.739720    1.338155
H      5.482015    0.288441    1.262902
H      5.073365    0.424337   -0.489331
H      4.964653   -1.178690    0.348765
H      3.237086    1.306220    0.967637
H      3.128831   -0.289980    1.802134
H      2.634837    0.208800   -1.211579
H      2.526446   -1.389030   -0.376199
H      0.810391    1.102492    0.261198
H      0.702010   -0.495203    1.096528
H      0.215008   -0.005641   -1.919882
H      0.107503   -1.590532   -1.091259
H     -1.731308   -2.057692    0.496630
H     -5.096546    0.612413    0.510135
H     -1.472872    1.752731   -1.495641
H     -3.445347    3.222688   -1.434868
H     -3.842234   -2.629103    1.624726
