43

C      3.659430   -0.579154    1.867293
C      2.909352   -0.318394    0.588340
C      2.569238   -1.366059   -0.196416
C      1.832860   -1.216212   -1.512480
C      0.460569   -0.445472   -1.452064
C     -0.722237   -1.385237   -1.694183
C     -1.953402   -0.686484   -1.100777
C     -1.436439    0.327637   -0.017451
C      0.113734    0.128622   -0.050179
C      0.992494    1.355979    0.336211
C      2.513642    1.099216    0.218006
C     -2.068569   -0.018626    1.390299
C     -3.597867    0.188746    1.429148
C     -1.439873    0.757705    2.558243
O     -1.726226    1.664527   -0.371340
O     -2.674945   -0.033063   -2.116146
C      0.451010    0.644515   -2.564763
H      4.638329   -1.050830    1.638352
H      3.844526    0.359251    2.430214
H      3.069025   -1.260997    2.515444
H      2.838177   -2.371936    0.115924
H      1.686007   -2.230674   -1.943041
H      2.536463   -0.714226   -2.212095
H     -0.560292   -2.340044   -1.143307
H     -0.856910   -1.636619   -2.769898
H     -2.597358   -1.476098   -0.647493
H      0.315093   -0.668029    0.700707
H      0.734337    2.235044   -0.291184
H      0.787962    1.654316    1.380522
H      3.041734    1.830616    0.866737
H      2.865648    1.314719   -0.811475
H     -1.886901   -1.098540    1.592575
H     -3.853130    1.269673    1.448389
H     -4.017379   -0.276818    2.346687
H     -4.102852   -0.278244    0.560072
H     -1.416075    1.846613    2.340951
H     -0.417084    0.383635    2.767840
H     -2.023985    0.600740    3.490560
H     -2.705805    1.761648   -0.483601
H     -3.166152   -0.734263   -2.619158
H      0.540152    0.170119   -3.565900
H     -0.478356    1.247149   -2.558438
H      1.302059    1.345549   -2.461123
