42

C     -1.268431    4.114068    0.016358
C     -1.293716    2.609630    0.022744
C     -0.134755    1.933731   -0.131074
C     -0.040995    0.413216   -0.178375
C      1.226127   -0.085841    0.594235
C      1.058015   -1.537008    1.138403
C      0.133741   -2.390365    0.260434
C     -1.315026   -1.815478    0.160757
C     -1.317773   -0.261347    0.387408
C     -2.581634    0.444570   -0.139384
C     -2.597506    1.902813    0.318210
C     -1.901897   -2.206994   -1.219698
O     -2.112099   -2.386190    1.175034
C      2.549434    0.130789   -0.218953
C      3.780303    0.169254    0.701755
C      2.769787   -0.886956   -1.350629
H     -0.574292    4.483895    0.800662
H     -0.926992    4.478846   -0.975348
H     -2.277367    4.532097    0.217761
H      0.766531    2.507116   -0.324950
H      0.040950    0.134654   -1.249323
H      1.304742    0.556201    1.502218
H      2.035032   -2.050341    1.245143
H      0.621766   -1.497368    2.161217
H      0.111734   -3.425527    0.665525
H      0.588582   -2.470055   -0.748846
H     -1.307079   -0.094756    1.490901
H     -3.491939   -0.063106    0.247291
H     -2.605993    0.421010   -1.250997
H     -3.433576    2.426221   -0.194002
H     -2.785472    1.946582    1.412864
H     -2.990954   -1.995513   -1.263329
H     -1.391758   -1.656980   -2.038654
H     -1.771850   -3.295869   -1.400971
H     -2.173898   -3.364467    1.013347
H      2.505029    1.129174   -0.702047
H      4.686103    0.434621    0.115480
H      3.649893    0.941342    1.489556
H      3.955982   -0.812630    1.187203
H      2.941914   -1.907005   -0.948981
H      3.663834   -0.600044   -1.944509
H      1.905504   -0.905986   -2.044438
