20

C     -0.497894    0.629975   -0.992928
C     -1.764103    1.052900   -0.576985
C     -2.411371    0.401412    0.481740
C     -1.784801   -0.672365    1.122548
C     -0.518594   -1.097151    0.708526
C      0.130096   -0.454738   -0.358838
C      1.507081   -0.893783   -0.784527
C      2.589506   -0.230865    0.067355
O      2.581097    1.155330   -0.135917
O     -3.672881    0.813867    0.904737
H     -0.006845    1.148259   -1.807275
H     -2.239559    1.887904   -1.075650
H     -2.278341   -1.176137    1.943933
H     -0.042955   -1.925073    1.219710
H      1.593366   -1.997892   -0.685373
H      1.677590   -0.649419   -1.856032
H      2.416330   -0.460492    1.143054
H      3.580129   -0.643317   -0.227071
H      3.294845    1.522919    0.447374
H     -4.152695    1.588667    0.461621
