24

C      4.832355    0.311194    0.041051
C      4.056838    1.471478    0.130252
C      2.660728    1.383299    0.125418
C      2.037569    0.131216    0.031109
C      2.816829   -1.030554   -0.058212
C      4.212716   -0.938934   -0.053115
C      0.601539    0.038737    0.026009
C     -0.601538   -0.038739    0.021738
C     -2.037568   -0.131216    0.016640
C     -2.660730   -1.383285   -0.077840
C     -4.056839   -1.471464   -0.082666
C     -4.832355   -0.311194    0.006714
C     -4.212715    0.938922    0.101050
C     -2.816828    1.030541    0.106140
H      5.912448    0.380749    0.044894
H      4.537345    2.438579    0.203098
H      2.068735    2.288042    0.194959
H      2.346279   -2.003723   -0.131532
H      4.813803   -1.836384   -0.122111
H     -2.068738   -2.288019   -0.147517
H     -4.537348   -2.438555   -0.155643
H     -5.912448   -0.380750    0.002878
H     -4.813800    1.836360    0.170185
H     -2.346276    2.003700    0.179593
