41

C      3.863414   -2.951183    1.721313
C      3.160602   -1.803284    1.058436
C      3.897422   -0.796295    0.422602
C      3.254708    0.264831   -0.226597
C      1.836786    0.289031   -0.295613
C      1.104990   -0.706096    0.383117
C      1.762817   -1.753577    1.031012
O     -0.294610   -0.670946    0.403703
C     -1.053351    0.519278    0.158374
C     -2.509886    0.123622   -0.222844
C     -3.252393    1.301630   -0.799742
C     -2.617357    2.201712   -1.555270
C     -1.155175    2.136383   -1.731036
C     -0.405442    1.319043   -0.966948
C      1.065027    1.245818   -1.129701
O      1.630154    1.924572   -2.028927
O     -2.506335   -0.913912   -1.206799
C     -2.405496   -2.276730   -0.903034
O     -2.405977   -2.675428    0.293369
C     -2.350706   -3.271838   -2.011144
C     -1.073081    1.347315    1.425698
O     -1.019096    0.772175    2.548021
O     -1.212958    2.738154    1.354994
C     -1.263989    3.563774    2.511527
O      4.060185    1.274828   -0.757239
H      3.260390   -3.345497    2.566897
H      4.847536   -2.629165    2.123653
H      4.022903   -3.762822    0.981167
H      4.980359   -0.822707    0.447525
H      1.179883   -2.525253    1.519282
H     -3.065638   -0.221986    0.678041
H     -4.326453    1.365817   -0.678621
H     -3.177664    2.991100   -2.039370
H     -0.700676    2.769253   -2.482825
H     -1.963213   -2.790425   -2.933403
H     -1.678285   -4.111661   -1.736072
H     -3.369861   -3.665453   -2.205647
H     -1.374070    4.622252    2.198678
H     -2.134250    3.281994    3.141306
H     -0.326014    3.456516    3.096436
H      3.714799    2.185159   -1.025548
