49

C      3.133339   -0.254425    3.223603
O      4.315648    0.097392    2.512419
C      4.647265   -0.382000    1.234866
C      5.833431    0.069892    0.638833
C      6.189845   -0.371533   -0.642322
C      5.367296   -1.261793   -1.334456
C      4.185037   -1.734015   -0.746791
C      3.826658   -1.290054    0.536711
C      3.275569   -2.658778   -1.514867
C      2.317205   -1.882306   -2.426130
C      1.319108   -1.081327   -1.632553
O      1.534762    0.100625   -1.411044
C      0.081978   -1.727749   -1.075024
C     -1.140112   -1.166370   -1.739004
O     -1.377301   -1.466261   -2.941089
C     -2.045038   -0.265014   -0.999984
C     -3.101929    0.317344   -1.583614
C     -4.041927    1.210752   -0.865151
C     -4.276282    1.098092    0.521019
C     -5.210720    1.936508    1.159940
C     -5.909622    2.889022    0.405395
C     -5.683025    2.998778   -0.972288
C     -4.762429    2.161697   -1.603245
O     -6.834919    3.721922    1.034216
O     -5.477980    1.846313    2.533744
C     -4.831200    0.946354    3.429222
O      6.652056    0.964754    1.325085
H      3.118099    0.290380    4.191333
H      2.235466    0.035334    2.637163
H      3.120839   -1.345984    3.429963
H      7.101932   -0.018381   -1.106130
H      5.650259   -1.580289   -2.330841
H      2.904729   -1.646443    0.976905
H      2.697620   -3.304001   -0.817624
H      3.889987   -3.339172   -2.142173
H      1.771330   -2.602936   -3.074187
H      2.894921   -1.210778   -3.099929
H      0.109248   -2.825506   -1.245220
H      0.049599   -1.565848    0.023464
H     -1.816182   -0.061111    0.037989
H     -3.271978    0.163615   -2.643048
H     -3.762113    0.338539    1.092028
H     -6.225023    3.731452   -1.556840
H     -4.607411    2.260545   -2.671261
H     -7.359758    4.416615    0.514944
H     -3.740027    1.149547    3.449252
H     -5.022255   -0.104706    3.119521
H     -5.240658    1.091470    4.452172
H      7.514663    1.309840    0.921375
