10

C      0.133642    0.742458   -0.218212
C     -0.979920   -0.066696    0.394419
O     -0.225716   -1.253995    0.368561
C      0.864402   -0.575078   -0.205795
H      0.567218    1.490174    0.480750
H     -0.100328    1.103676   -1.243101
H     -1.873613   -0.143103   -0.263485
H     -1.214722    0.238387    1.438046
H      1.743972   -0.577169    0.475172
H      1.085064   -0.958653   -1.226355
