37

C     -6.058233   -2.568770   -3.344672
O     -5.235745   -2.122782   -2.273172
C     -4.001124   -1.496976   -2.478388
O     -3.576900   -1.308300   -3.652214
C     -3.195236   -1.057612   -1.317473
C     -1.951590   -0.427720   -1.503628
C     -1.179530   -0.023867   -0.407620
C     -1.675578   -0.211097    0.898509
C     -2.911123   -0.843152    1.087241
C     -3.663898   -1.266355   -0.010195
O     -0.955129    0.248146    2.000211
O      0.054868    0.594990   -0.655136
C      1.216407    0.423242    0.112531
C      1.580018   -0.827168    0.652299
C      2.747012   -0.938927    1.418666
C      3.563309    0.174171    1.630364
C      3.228505    1.418473    1.071961
C      2.053085    1.528833    0.307578
C      4.102108    2.593231    1.288706
O      3.798298    3.710385    0.785614
O      5.267020    2.464126    2.053134
C      6.148723    3.552948    2.299247
O      0.797957   -1.955533    0.409675
H     -6.343509   -1.709600   -3.988034
H     -5.517105   -3.327321   -3.949033
H     -6.978623   -3.028960   -2.930444
H     -1.566928   -0.258660   -2.501938
H     -3.295673   -0.997647    2.087432
H     -4.616792   -1.749131    0.166613
H     -1.295724    0.126550    2.946727
H      3.029348   -1.894028    1.843158
H      4.460880    0.056619    2.224405
H      1.771484    2.478520   -0.130564
H      6.549307    3.942237    1.339321
H      5.612166    4.362302    2.838254
H      6.994257    3.202689    2.926039
H      1.043687   -2.863855    0.785507
