45

C     -1.181023    2.417279   -2.816041
O     -1.658592    1.552926   -1.790369
C     -0.838719    0.825162   -0.910537
C     -1.442751    0.004033    0.061843
C     -0.642360   -0.715341    0.972568
C      0.763300   -0.663767    0.871102
C      1.362870    0.178313   -0.082694
C      0.562756    0.916352   -0.962876
C      2.830933    0.313192   -0.161500
C      3.624147   -0.764611   -0.581985
C      5.015333   -0.633729   -0.661263
C      5.622669    0.588511   -0.324557
C      4.828820    1.669907    0.082515
C      3.440310    1.534752    0.159418
O      7.007962    0.724871   -0.398508
O      5.775653   -1.725420   -1.079150
O      1.572040   -1.415005    1.731696
C      1.663530   -2.834353    1.642700
O     -1.259271   -1.454224    1.985207
C     -2.920090   -0.076776    0.145195
C     -3.588251    0.305070    1.319917
C     -4.983719    0.233379    1.399687
C     -5.724427   -0.223318    0.295953
C     -5.059363   -0.602856   -0.878019
C     -3.666285   -0.529697   -0.953829
O     -7.114480   -0.297735    0.369074
O     -5.615401    0.620796    2.580979
H     -0.589977    3.246172   -2.372514
H     -2.047300    2.849530   -3.357316
H     -0.559912    1.846292   -3.538093
H      1.043247    1.555379   -1.692179
H      3.162396   -1.700546   -0.867536
H      5.287490    2.616221    0.339603
H      2.840234    2.378999    0.476646
H      7.468755    1.595860   -0.161995
H      6.784822   -1.681034   -1.154184
H      0.668445   -3.309819    1.751806
H      2.091156   -3.128255    0.663038
H      2.329199   -3.206389    2.448021
H     -0.745919   -1.853273    2.760480
H     -3.025836    0.667881    2.171916
H     -5.621873   -0.956287   -1.732807
H     -3.168148   -0.832952   -1.866670
H     -7.670303   -0.623433   -0.413152
H     -6.622066    0.587944    2.688587
