46

C      4.194804   -1.650775   -0.238584
C      3.619818   -0.304392   -0.598460
C      4.371726    0.815154   -0.671323
C      5.828078    0.912777   -0.431403
O      6.521730   -0.099709   -0.141087
O      6.434212    2.167814   -0.537786
C      7.826565    2.368885   -0.325785
C      2.138341   -0.204159   -0.881315
C      1.390921    0.370930    0.325201
C     -0.115908    0.415825    0.043982
C     -0.998715   -0.710446    0.478245
O     -0.855553    0.466929    1.244951
C     -0.401563   -1.943707    1.171997
C     -2.380595   -0.816818   -0.189588
C     -3.508364   -0.895991    0.845914
C     -4.866865   -0.997177    0.141644
C     -5.650045    0.237351   -0.156817
O     -5.916531   -0.556473    0.978745
C     -6.756235    0.130776   -1.205972
C     -5.121320    1.628038    0.215222
H      4.946532   -1.958265   -0.995612
H      3.407640   -2.432717   -0.204440
H      4.660839   -1.608009    0.768193
H      3.879528    1.745185   -0.931665
H      8.412686    1.768734   -1.053657
H      8.065850    3.442304   -0.469951
H      8.099767    2.075204    0.709820
H      1.967302    0.437397   -1.774333
H      1.724466   -1.205327   -1.127594
H      1.735760    1.411168    0.509280
H      1.630224   -0.219338    1.235060
H     -0.501639    1.152620   -0.692388
H     -1.186333   -2.705570    1.355605
H      0.048041   -1.679486    2.152616
H      0.371888   -2.403797    0.523669
H     -2.396238   -1.728365   -0.825617
H     -2.561791    0.053487   -0.857178
H     -3.380696   -1.807403    1.466775
H     -3.457683   -0.025179    1.531717
H     -5.135804   -1.939578   -0.381547
H     -7.109323   -0.916052   -1.327449
H     -7.620452    0.758607   -0.903235
H     -6.372194    0.492710   -2.182371
H     -5.868031    2.403682   -0.055209
H     -4.928596    1.717069    1.305157
H     -4.186246    1.836086   -0.344158
