34

C      5.912104   -1.287648   -0.141651
O      4.520118   -1.432551    0.111792
C      3.618249   -0.372233   -0.011533
N      4.026672    0.878795   -0.388432
C      3.135020    1.914258   -0.513902
N      1.805321    1.718952   -0.262089
C      1.407589    0.480021    0.116361
C      2.267234   -0.555805    0.243482
N      1.611057   -1.675883    0.599512
C      0.318804   -1.252546    0.679250
N      0.165812    0.068638    0.398375
C     -1.080022    0.830384    0.300004
C     -1.728134    0.630293   -1.062898
C     -3.193185    0.766768   -0.747188
C     -3.262084    0.288944    0.707882
O     -1.983689    0.411281    1.299197
C     -3.725183   -1.170024    0.799296
O     -3.763656   -1.570172    2.141028
O     -3.590127    2.112846   -0.832409
O     -1.302844    1.596085   -1.989376
H      6.076120   -0.970460   -1.193318
H      6.348279   -0.535935    0.549861
H      6.415896   -2.262157    0.022604
H      3.486208    2.891330   -0.815609
H     -0.503141   -1.910951    0.928365
H     -0.868195    1.911550    0.463301
H     -1.533873   -0.398475   -1.450377
H     -3.801135    0.142732   -1.444661
H     -3.981951    0.914511    1.281287
H     -4.742276   -1.263818    0.356438
H     -3.024186   -1.824036    0.233105
H     -4.057279   -2.518172    2.137075
H     -4.582813    2.115412   -0.817210
H     -0.390711    1.328068   -2.274474
