50

C     -5.034478    2.147260   -1.400403
C     -4.953939    0.731790   -0.882129
C     -3.795281    0.211228   -0.428069
C     -2.498063    0.981784   -0.396083
C     -1.361342    0.105080    0.086747
C     -0.594581   -0.651953   -0.835033
C      0.545325   -1.357777   -0.397271
C      0.857031   -1.410029    0.973402
C      0.044743   -0.726247    1.891362
C     -1.058892    0.013746    1.466493
O     -1.841999    0.626620    2.449163
O      1.979398   -2.147074    1.389584
C      2.408524   -2.277552    2.740849
C      1.416691   -2.055975   -1.372674
O      1.726660   -3.262008   -1.177791
C      2.018623   -1.325814   -2.545383
C      3.446586   -0.846022   -2.246717
C      3.498394    0.101059   -1.071101
C      2.875041    1.358378   -1.143170
C      2.876063    2.210428   -0.035229
C      3.510482    1.823330    1.149049
C      4.147465    0.577797    1.221818
C      4.141598   -0.279717    0.117915
O      3.506219    2.683576    2.245774
O     -0.964895   -0.754672   -2.180875
C     -6.191652   -0.127648   -0.861601
H     -6.068231    2.408626   -1.709661
H     -4.724896    2.860865   -0.607606
H     -4.372106    2.266394   -2.283289
H     -3.793586   -0.814285   -0.063523
H     -2.266885    1.389554   -1.401091
H     -2.603005    1.879259    0.247205
H      0.256223   -0.767934    2.951185
H     -2.732431    1.067347    2.263864
H      2.636545   -1.277847    3.168749
H      1.623403   -2.782036    3.343075
H      3.330845   -2.893335    2.769641
H      1.397054   -0.454225   -2.838104
H      2.045738   -2.011486   -3.420855
H      3.842976   -0.323124   -3.143400
H      4.100681   -1.728476   -2.072848
H      2.377054    1.672023   -2.051905
H      2.385285    3.171701   -0.098357
H      4.641193    0.269726    2.134677
H      4.624156   -1.245008    0.198226
H      3.959509    2.431786    3.116919
H     -1.840320   -0.414354   -2.554655
H     -6.011309   -1.064826   -1.429227
H     -7.060903    0.392133   -1.317092
H     -6.450708   -0.382067    0.187497
