44

C     -6.367662    0.403781   -0.806524
C     -5.544709   -0.046036    0.401188
C     -4.048795   -0.244949    0.068889
C     -3.356475    1.090466   -0.285076
C     -1.849279    0.969482   -0.412158
C     -1.170863    1.901192   -1.201216
C      0.214345    1.860198   -1.337541
C      0.974540    0.962956   -0.547027
C      0.302727    0.031688    0.288630
C     -1.120945   -0.017299    0.288198
C     -1.895294   -1.123574    0.908081
O     -1.399920   -2.275601    1.035876
C     -3.333567   -0.905479    1.256876
C      1.129212   -0.819079    1.191680
O      0.653290   -1.269747    2.269018
C      2.553224   -1.049270    0.877315
C      3.220664   -0.161538    0.012766
C      2.466060    0.996744   -0.524953
O      3.088528    2.037440   -0.867774
C      4.587616   -0.366899   -0.287956
C      5.264526   -1.455026    0.297509
C      4.597641   -2.320915    1.163909
C      3.249783   -2.120851    1.455741
O      5.238072    0.510854   -1.171790
C      6.605754    0.409639   -1.555100
O      0.785658    2.713241   -2.285177
H     -7.446161    0.393091   -0.542343
H     -6.207975   -0.283105   -1.664623
H     -6.098263    1.438429   -1.103313
H     -5.970118   -1.009875    0.757640
H     -5.661227    0.696276    1.221061
H     -3.970408   -0.929657   -0.806701
H     -3.575234    1.846302    0.500441
H     -3.772013    1.464830   -1.245288
H     -1.730380    2.640038   -1.763032
H     -3.393691   -0.254134    2.156102
H     -3.814888   -1.879463    1.496475
H      6.309021   -1.641399    0.089299
H      5.128033   -3.152695    1.609553
H      2.749190   -2.807463    2.127224
H      7.260330    0.501412   -0.662770
H      6.846586    1.233338   -2.257824
H      6.788324   -0.558655   -2.067166
H      1.714742    2.591315   -2.662730
