48

C     -3.086317   -1.822655   -2.850151
O     -3.712071   -2.023065   -1.586841
C     -3.215566   -1.534556   -0.368138
C     -3.932976   -1.809656    0.804075
C     -3.466809   -1.343204    2.039525
C     -2.287031   -0.601204    2.113202
C     -1.556104   -0.311101    0.950008
C     -2.026643   -0.783671   -0.289524
C     -0.268768    0.501042    1.038383
C     -0.429888    1.874007    0.309118
C      0.917013    2.596794    0.177025
C      2.008364    1.869510   -0.125369
C      2.009406    0.396875   -0.062970
C      3.131206   -0.313561   -0.515516
C      3.194064   -1.713162   -0.388338
C      2.127165   -2.392573    0.221521
C      1.012363   -1.683669    0.676851
C      0.919099   -0.288775    0.501484
O      2.158128   -3.776925    0.390575
O      4.297828   -2.452909   -0.842560
C      5.442745   -1.890656   -1.475568
C      0.993823    4.114838    0.082444
O      2.296547    4.596801    0.286923
C     -1.523037    2.732407    0.999584
O     -1.943035    3.780820    0.166820
O     -5.111374   -2.550757    0.732623
H     -3.022544   -0.737362   -3.076847
H     -3.693233   -2.314800   -3.637378
H     -2.071567   -2.273928   -2.849479
H     -4.019833   -1.556104    2.945525
H     -1.946222   -0.249882    3.079041
H     -1.455844   -0.572022   -1.183255
H     -0.038241    0.715913    2.106153
H     -0.771135    1.670629   -0.729896
H      2.935845    2.360942   -0.393928
H      3.955758    0.231611   -0.955593
H      0.218847   -2.231742    1.168674
H      2.940447   -4.341709    0.082487
H      5.145223   -1.368927   -2.409656
H      6.150293   -2.704911   -1.733778
H      5.951364   -1.183569   -0.786728
H      0.326283    4.600913    0.824053
H      0.657371    4.422511   -0.929608
H      2.492428    4.482627    1.253886
H     -1.130975    3.151041    1.950791
H     -2.411169    2.120665    1.270170
H     -2.508172    3.374248   -0.541103
H     -5.653059   -2.767138    1.561282
