41

C     -4.997739   -0.848210   -0.248032
C     -3.823710    0.104794    0.016156
C     -2.815879   -0.521483    1.013461
C     -1.646855   -1.168712    0.320571
O     -1.287446   -2.281562    0.676964
C     -0.893344   -0.451235   -0.788775
C      0.523947   -0.132788   -0.276251
C      0.782171    1.060715    0.311487
C     -0.281880    2.084520    0.428203
C     -1.432468    1.972731   -0.231304
C     -1.659858    0.855881   -1.220483
C     -3.181871    0.558747   -1.325916
O     -1.168856    1.324246   -2.457961
C      2.125347    1.364741    0.868484
O      2.329499    2.484740    1.411310
C      3.220558    0.365638    0.783458
C      2.944624   -0.890150    0.206191
C      1.583945   -1.182809   -0.298035
O      1.320823   -2.337426   -0.732508
C      3.961416   -1.857615    0.119449
C      5.241177   -1.581713    0.598136
C      5.521925   -0.341843    1.168356
C      4.523379    0.636502    1.266352
O      4.830990    1.869997    1.840831
O     -0.845097   -1.332714   -1.890088
H     -4.632854   -1.803174   -0.683842
H     -5.535583   -1.068022    0.698910
H     -5.718826   -0.381535   -0.952852
H     -4.249065    1.008518    0.507826
H     -3.320483   -1.255003    1.680914
H     -2.417351    0.272717    1.680236
H     -0.135126    2.946257    1.067272
H     -2.178091    2.751321   -0.119135
H     -3.326694   -0.234231   -2.093877
H     -3.716336    1.459766   -1.701175
H     -1.542843    0.764891   -3.187800
H      3.768420   -2.828096   -0.320334
H      6.018357   -2.331758    0.526580
H      6.520171   -0.140344    1.535866
H      5.758942    2.078688    2.190639
H     -0.167439   -0.994987   -2.533034
