16

C      0.084810   -0.708647   -0.326978
C     -1.356108   -1.094952   -0.468536
O     -1.741190   -2.218239   -0.046645
C     -2.336337   -0.170534   -1.058684
O     -1.977430    0.968655   -1.461397
O     -3.669114   -0.554683   -1.171677
O      0.205617    0.217368    0.725939
P      1.837225    0.702897    0.832027
O      2.233248    1.461550   -0.415569
O      2.839818   -0.649075    1.016259
O      2.023043    1.712624    2.176845
H      0.426172   -0.270770   -1.292500
H      0.681378   -1.624804   -0.114617
H     -4.357572    0.069642   -1.574845
H      3.749096   -0.275064    1.135584
H      1.357343    2.434032    2.044793
