29

C     -3.182328   -1.799736    1.844169
C     -2.032442   -1.180490    1.108458
N     -1.152592   -1.995640    0.474386
C     -0.090695   -1.519843   -0.220225
C      0.146919   -0.136212   -0.311376
C     -0.743711    0.744909    0.358294
C     -1.850313    0.215147    1.055903
O     -2.748994    1.086866    1.680277
C     -0.581407    2.251034    0.292118
N     -1.456191    2.801988   -0.737750
C      1.339485    0.391573   -1.092228
O      1.975710   -0.618260   -1.852022
P      3.411007   -1.125539   -1.073301
O      3.148107   -1.419807    0.387857
O      4.598510    0.074473   -1.214740
O      3.967421   -2.535992   -1.822397
H     -4.141925   -1.460990    1.400174
H     -3.143248   -1.515048    2.916632
H     -3.138060   -2.907651    1.776035
H      0.562044   -2.233853   -0.702356
H     -3.562692    0.771083    2.192228
H     -0.847201    2.698580    1.274632
H      0.468219    2.556782    0.101899
H     -1.372023    3.843774   -0.704121
H     -1.092468    2.504362   -1.671954
H      0.968464    1.146345   -1.815971
H      2.023781    0.938811   -0.404493
H      4.424483    0.703922   -0.470406
H      4.102143   -2.280589   -2.769721
