28

C      3.756658   -0.915274   -1.860225
C      2.399927   -0.642562   -1.284012
N      1.364369   -0.428228   -2.134778
C      0.109628   -0.159817   -1.698489
C     -0.169086   -0.078036   -0.323889
C      0.874367   -0.366743    0.594320
C      2.176303   -0.614000    0.107254
O      3.221588   -0.827684    1.012082
C      0.628837   -0.369487    2.087094
O      0.708277    0.940699    2.574249
C     -1.581702    0.221784    0.137642
O     -2.267254    0.988765   -0.826468
P     -3.871938    1.213710   -0.294288
O     -4.611761    2.059348   -1.305689
O     -3.886524    2.003045    1.203408
O     -4.651720   -0.281734   -0.147770
H      4.110689   -1.916911   -1.537527
H      3.719596   -0.899432   -2.970384
H      4.473841   -0.137020   -1.524564
H     -0.669526   -0.005560   -2.433207
H      4.174951   -1.008940    0.725430
H      1.371587   -1.009348    2.612402
H     -0.367865   -0.806635    2.316427
H      0.512657    0.886355    3.545693
H     -1.542106    0.793593    1.090142
H     -2.089529   -0.754298    0.306996
H     -3.362405    2.830806    1.057833
H     -4.531857   -0.716394   -1.029683
