48

C     -4.104646   -1.575270    2.328086
O     -2.867611   -1.206993    1.758369
C     -2.854349   -1.523063    0.374306
C     -1.409985   -1.492534   -0.165488
C     -0.865309   -0.052359   -0.183943
C     -1.863492    0.869147   -0.912334
C     -3.262157    0.697215   -0.278764
O     -3.697702   -0.651105   -0.369619
C     -4.305595    1.610458   -0.936983
O     -4.582135    1.186688   -2.243909
O     -1.909834    0.547524   -2.280838
O      0.383769   -0.042519   -0.857983
C      1.290657    0.870682   -0.261705
C      2.444443    1.209747   -1.253808
C      3.766479    1.401176   -0.483329
C      4.092715    0.139741    0.358173
C      2.789209   -0.582450    0.806539
O      1.751774    0.362411    0.988303
C      2.956652   -1.393910    2.097285
O      3.962311   -2.355873    1.934491
O      4.884849    0.491991    1.466018
O      3.661361    2.524848    0.356470
O      2.592592    0.181511   -2.202453
O     -0.595953   -2.307579    0.638596
H     -4.248411   -2.677663    2.293031
H     -4.105771   -1.271460    3.394855
H     -4.953712   -1.055767    1.831346
H     -3.215609   -2.566021    0.212621
H     -1.427508   -1.891475   -1.208082
H     -0.782750    0.282534    0.879811
H     -1.544612    1.929685   -0.778342
H     -3.209550    1.018579    0.787436
H     -5.241081    1.576665   -0.334514
H     -3.935927    2.660654   -0.946807
H     -5.252235    1.823993   -2.603948
H     -1.153088    1.021148   -2.715208
H      0.779056    1.838778   -0.050268
H      2.187156    2.156483   -1.785762
H      4.599173    1.563130   -1.207811
H      4.661715   -0.577163   -0.280254
H      2.500461   -1.319639    0.019225
H      3.204748   -0.718982    2.946999
H      1.993622   -1.902014    2.329177
H      4.023305   -2.838868    2.799241
H      5.790600    0.698896    1.115534
H      3.737108    3.326566   -0.224438
H      3.132053    0.553149   -2.948622
H      0.203216   -2.540695    0.097844
