12

O     -1.591347    1.020824    0.000939
P     -0.993420   -0.563428   -0.031057
O     -0.937185   -1.061290   -1.458927
O     -2.038886   -1.558071    0.852929
O      0.549598   -0.637584    0.685766
P      1.585292    0.390665   -0.192723
O      1.704193   -0.074287   -1.627018
O      3.119135    0.345329    0.518508
O      1.021143    1.985831   -0.158053
H     -2.475639    0.968159   -0.441918
H     -2.916651   -1.468753    0.402822
H      2.973766    0.652606    1.448732
