21

C     -0.784566    1.622956    0.198670
C      0.674001    1.370063   -0.206651
C      1.158127   -0.008463    0.296936
C      0.263695   -1.140166   -0.260361
C     -1.211674   -0.934021    0.138849
C     -1.649476    0.466929   -0.214224
O     -2.724338    0.670104   -0.759496
O     -2.009014   -1.882776   -0.523539
O      0.717762   -2.372758    0.238073
O      2.484464   -0.207658   -0.122046
O      1.474828    2.387950    0.336478
H     -1.143094    2.561339   -0.278650
H     -0.855097    1.744974    1.301468
H      0.733379    1.396720   -1.321587
H      1.108083   -0.013692    1.412713
H      0.345795   -1.131005   -1.374310
H     -1.302273   -1.063515    1.243165
H     -2.855048   -1.957095   -0.008818
H      0.386407   -3.075127   -0.380499
H      2.888875   -0.868490    0.498806
H      2.299164    2.433732   -0.214977
