19

C     -0.010948   -0.583711    0.043823
C     -1.327401   -0.341749    0.800815
C     -2.074320    0.826528    0.221389
O     -2.567504    0.756731   -0.936897
O     -2.205131    1.998516    0.959978
N     -2.178229   -1.533768    0.779367
O      0.817246    0.549271    0.171578
P      2.244354    0.278661   -0.722400
O      1.921106    0.188566   -2.197606
O      3.305911    1.570872   -0.465778
O      2.989867   -1.154865   -0.216268
H     -0.243090   -0.791686   -1.026495
H      0.486259   -1.474538    0.490175
H     -1.082227   -0.107812    1.861088
H     -2.698409    2.798477    0.581935
H     -1.692587   -2.300329    1.299894
H     -2.300796   -1.859331   -0.207757
H      2.782968    2.378011   -0.702598
H      3.832931   -1.197844   -0.734245
