9

C      1.269609    0.419522    0.212507
S      0.225114   -0.452396   -0.997195
C     -1.259512   -0.439814    0.056520
H      1.342116   -0.170386    1.149924
H      2.286804    0.545324   -0.211690
H      0.845498    1.421667    0.431214
H     -1.558332    0.604903    0.282952
H     -1.061719   -0.987149    1.001665
H     -2.089579   -0.941671   -0.481609
