27

C      4.595612    0.764666    0.158082
C      4.262296   -0.550515   -0.164590
C      2.921151   -0.932108   -0.273886
C      1.885466    0.006140   -0.059743
C      2.245481    1.331269    0.265693
C      3.588208    1.704307    0.372943
C      0.435809   -0.346892   -0.163502
C     -0.017607   -1.643897   -0.483515
C     -1.389085   -1.894088   -0.561357
O     -1.794349   -3.053777   -0.847480
C     -2.295732   -0.852541   -0.320329
C     -3.689280   -1.037025   -0.382531
C     -4.549169    0.037182   -0.133029
C     -4.029082    1.296619    0.178711
C     -2.646084    1.488786    0.242655
C     -1.776178    0.421064   -0.005170
O     -0.462802    0.613912    0.058051
H      5.634817    1.055536    0.241608
H      5.045955   -1.278568   -0.331025
H      2.721851   -1.961011   -0.525527
H      1.489557    2.086719    0.439099
H      3.847162    2.725046    0.623388
H      0.659642   -2.461801   -0.673248
H     -4.113533   -2.004311   -0.622263
H     -5.620839   -0.106805   -0.181375
H     -4.698792    2.124863    0.370995
H     -2.250476    2.467231    0.484722
