51

C     -2.927606    2.434918    1.724839
C     -3.573764    1.309792    0.951039
C     -2.926037    0.126273    0.760430
C     -3.561886   -1.050228    0.002793
C     -5.095366   -0.874126   -0.167992
C     -5.459427    0.551974   -0.559500
C     -5.014078    1.510788    0.538119
C     -2.893270   -1.167410   -1.385311
C     -3.325660   -2.369236    0.773183
C     -1.519777   -0.022897    1.206123
C     -0.517514    0.559994    0.539427
C      0.903277    0.398504    0.927650
C      1.831459    0.397987   -0.050268
C      3.279557    0.203878    0.183958
C      4.134348    0.133680   -0.843234
C      5.600659   -0.053627   -0.661622
C      6.372473   -0.561734   -1.642445
C      5.860105   -0.988090   -2.992303
O      5.467542    0.127765   -3.744696
C      6.244696    0.296673    0.658032
C      1.279037    0.235801    2.381227
H     -3.641262    3.268958    1.897143
H     -2.585925    2.070585    2.716859
H     -2.062527    2.839089    1.159806
H     -5.616712   -1.115500    0.784226
H     -5.489269   -1.576542   -0.935531
H     -6.561807    0.630284   -0.689289
H     -4.985512    0.829968   -1.524383
H     -5.159030    2.550035    0.173120
H     -5.658792    1.370661    1.431584
H     -2.968316   -0.214606   -1.949018
H     -3.368158   -1.972623   -1.986910
H     -1.815614   -1.414161   -1.284238
H     -3.866036   -3.209213    0.285664
H     -3.688967   -2.280288    1.820303
H     -2.246573   -2.637493    0.801184
H     -1.317448   -0.677250    2.043635
H     -0.746738    1.123375   -0.358236
H      1.503336    0.520754   -1.078217
H      3.648978    0.086825    1.193987
H      3.734540    0.197707   -1.845853
H      7.429990   -0.714027   -1.458311
H      4.996821   -1.676369   -2.871196
H      6.655122   -1.549624   -3.531867
H      6.300675    0.570885   -4.052298
H      7.343843    0.431874    0.558583
H      6.050620   -0.512294    1.395759
H      5.827459    1.253593    1.042710
H      1.603976   -0.809354    2.571060
H      2.095817    0.937078    2.649836
H      0.428739    0.476992    3.050469
