39

C     -1.136037    2.815659   -1.248327
C     -1.594387    1.516363   -0.624837
C     -2.928169    1.301511   -0.565762
C     -3.559612    0.059971    0.013639
C     -2.586551   -0.796352    0.835181
C     -1.183799   -0.890313    0.182836
C     -0.617816    0.562803    0.076069
C      0.815659    0.572311   -0.524056
C      1.709897   -0.596417   -0.022051
C      1.168695   -1.227800    1.272457
C     -0.259179   -1.777184    1.088793
C      3.158979   -0.156291    0.154410
C      4.126376   -0.683516   -0.613192
C      3.538646    0.880241    1.183231
C     -1.314966   -1.555344   -1.218887
H     -1.313583    2.781444   -2.343772
H     -1.709338    3.665079   -0.818685
H     -0.066712    3.030503   -1.073569
H     -3.602820    2.015552   -1.031618
H     -4.412915    0.358695    0.659184
H     -3.973895   -0.545543   -0.820442
H     -3.020746   -1.812215    0.966811
H     -2.495960   -0.344898    1.848879
H     -0.525251    0.959023    1.113039
H      0.758782    0.529701   -1.634081
H      1.295161    1.537518   -0.260680
H      1.681642   -1.397062   -0.792802
H      1.836204   -2.057779    1.593217
H      1.160525   -0.476275    2.091017
H     -0.692419   -1.894284    2.106928
H     -0.190836   -2.810016    0.680265
H      3.903837   -1.429342   -1.369999
H      5.160479   -0.373293   -0.494120
H      4.230882    0.433475    1.927764
H      4.041580    1.736690    0.686140
H      2.649548    1.269152    1.720246
H     -1.847034   -0.901887   -1.940205
H     -0.328226   -1.788771   -1.661491
H     -1.876643   -2.511110   -1.141531
