46

C     -3.212597    1.220678   -2.785217
O     -2.231494    1.225295   -1.753603
C     -2.313042    0.467606   -0.574666
C     -3.405947   -0.373945   -0.297697
C     -3.445120   -1.121338    0.887858
C     -2.400494   -1.004283    1.815599
C     -1.302343   -0.165386    1.551557
C     -1.264566    0.560945    0.352046
O     -0.175140    1.389892    0.078625
C      0.954432    0.914349   -0.646419
C      1.885276    2.101068   -0.955315
C      3.152593    1.597357   -1.676215
C      3.783791    0.421519   -0.900365
C      2.697771   -0.634489   -0.585665
O      1.635058   -0.043990    0.144041
C      3.281062   -1.782114    0.251958
O      2.302591   -2.758408    0.491152
O      4.802006   -0.161798   -1.672811
O      4.076647    2.642771   -1.851041
O      1.223760    3.075225   -1.724379
O     -0.232540   -0.028593    2.450084
C     -0.111695   -0.742523    3.675763
C     -4.634390   -1.990575    1.193798
O     -5.640362   -1.230381    1.804834
H     -2.889312    1.905663   -3.595454
H     -4.186686    1.575546   -2.387367
H     -3.319710    0.198350   -3.205420
H     -4.228287   -0.453340   -0.996338
H     -2.451414   -1.566983    2.738276
H      0.593671    0.457229   -1.598548
H      2.181249    2.567493    0.010592
H      2.862734    1.228357   -2.685672
H      4.200772    0.795250    0.065617
H      2.320599   -1.078359   -1.537786
H      3.686525   -1.393405    1.214909
H      4.118160   -2.261008   -0.298918
H      1.754474   -2.435029    1.253358
H      5.602251    0.418109   -1.578145
H      4.346078    2.961202   -0.949856
H      0.932157    2.645150   -2.570873
H     -0.955611   -0.487614    4.351092
H     -0.093249   -1.835732    3.480264
H      0.838628   -0.454465    4.169888
H     -4.342790   -2.845994    1.845288
H     -5.036256   -2.425392    0.253725
H     -5.359240   -1.093907    2.747448
