12

C      1.293288    0.712861   -0.100539
C      0.301082   -0.446572   -0.077609
C     -1.095618    0.071279    0.109361
O     -1.714806    0.592886   -0.857007
O     -1.693845    0.008819    1.363963
O      0.395516   -1.162833   -1.280733
H      2.325872    0.320726   -0.217705
H      1.239725    1.283922    0.851287
H      1.074126    1.397367   -0.948297
H      0.564473   -1.111230    0.777616
H     -2.630376    0.365777    1.511236
H     -0.059437   -2.033001   -1.131573
