39

C     -2.997860   -1.679154    0.402457
C     -4.185878   -1.821001   -0.321034
C     -4.704321   -0.741372   -1.042793
C     -4.029459    0.486474   -1.037522
C     -2.841565    0.631730   -0.315122
C     -2.310812   -0.453368    0.405928
C     -1.031233   -0.300299    1.197382
C     -1.318829    0.458573    2.419339
N     -1.544647    1.057342    3.383557
O     -0.057906    0.405036    0.447100
C      0.627774   -0.459848   -0.448543
C      1.186055    0.353811   -1.646037
C      2.624545    0.865824   -1.397203
C      2.874420    1.026201    0.105049
C      2.661202   -0.344681    0.806228
O      1.656987   -1.174016    0.220558
C      2.406896   -0.188618    2.315874
O      3.527414    0.359307    2.957198
O      4.190844    1.465391    0.329447
O      2.815988    2.098132   -2.042943
O      1.139992   -0.401220   -2.832059
O     -5.888819   -0.897927   -1.758941
H     -2.613913   -2.525830    0.957778
H     -4.705135   -2.770971   -0.319677
H     -4.425128    1.328496   -1.590982
H     -2.334663    1.588754   -0.317510
H     -0.645530   -1.294014    1.526557
H     -0.076028   -1.210534   -0.880505
H      0.517078    1.231184   -1.792942
H      3.366042    0.126406   -1.784320
H      2.152738    1.773675    0.514345
H      3.611807   -0.913307    0.699726
H      2.158531   -1.178864    2.761737
H      1.541888    0.481117    2.492690
H      4.195864   -0.370498    3.035809
H      4.194134    2.450244    0.203830
H      2.886347    1.902530   -3.013824
H      1.666024   -1.230002   -2.679354
H     -6.290842   -0.134704   -2.290643
