19

C     -1.613897    0.160367    0.343696
C     -1.666593    1.477027   -0.375630
O     -1.478743    2.521461    0.227900
C     -0.218168   -0.136802    0.946002
C      0.791512   -0.717470   -0.073222
C      1.152679    0.274165   -1.193964
O      2.260630   -0.188448   -1.918371
O      0.285824   -1.907466   -0.624347
O     -0.360264   -1.064029    1.992454
H     -2.369186    0.196490    1.158618
H     -1.922494   -0.651937   -0.348141
H     -1.892256    1.505882   -1.436564
H      0.216143    0.803774    1.362257
H      1.724362   -0.941545    0.497380
H      0.300584    0.372463   -1.897517
H      1.369568    1.281528   -0.770175
H      3.062090   -0.003533   -1.362250
H      1.062104   -2.417028   -0.975836
H     -0.703893   -0.564898    2.779441
