45

C     -2.793479   -1.628641   -2.339639
C     -2.339048   -1.479495   -0.877977
C     -3.530409   -1.611831    0.101866
C     -3.042754   -1.359018    1.543778
C     -2.227533   -0.056261    1.625147
C     -1.136049   -0.064240    0.539013
O     -1.734937   -0.204099   -0.739527
O     -0.447231    1.171875    0.588427
C      0.801709    1.079287   -0.072221
C      1.312229    2.508253   -0.367752
C      2.859841    2.574561   -0.329049
C      3.481511    1.235662   -0.785124
C      2.888813    0.044166    0.035319
O      1.726137    0.410217    0.767098
C      3.925863   -0.509116    1.023885
O      3.387666   -1.578019    1.755010
O      3.216327    1.032236   -2.150837
O      3.275465    2.867238    0.981724
O      0.839409    2.911236   -1.628285
O     -1.642298    0.042399    2.898228
O     -4.122904   -1.329002    2.443931
O     -4.082295   -2.900552    0.013426
O     -3.240463   -2.931377   -2.604481
H     -1.949923   -1.374181   -3.021703
H     -3.617496   -0.914889   -2.554148
H     -1.592625   -2.284259   -0.676905
H     -4.295852   -0.845979   -0.170041
H     -2.380268   -2.203781    1.839162
H     -2.909974    0.809179    1.447035
H     -0.438321   -0.913395    0.752441
H      0.685794    0.536940   -1.046232
H      0.910535    3.200837    0.410941
H      3.206168    3.391830   -1.005118
H      4.587540    1.290365   -0.644641
H      2.631639   -0.791147   -0.657077
H      4.840011   -0.841812    0.480404
H      4.223675    0.289936    1.735953
H      3.372250   -2.360940    1.144627
H      3.807087    1.649943   -2.656389
H      4.221905    3.162463    0.925699
H      0.906247    3.901515   -1.658686
H     -1.429349    1.000933    3.044706
H     -4.719066   -0.581543    2.175536
H     -5.004396   -2.844175    0.376892
H     -2.431151   -3.503318   -2.664417
