46

C      3.047411   -0.268594    1.933833
C      2.110958    0.458651    2.670744
C      0.923492    0.898392    2.076277
C      0.663460    0.588905    0.721572
C      1.613358   -0.140269   -0.012955
C      2.803007   -0.577427    0.588415
C      3.828458   -1.330610   -0.220168
C      4.725039   -0.368203   -1.019682
C      5.634402   -1.132796   -1.951795
O      5.562798   -0.933388   -3.193127
O      6.558400   -2.056106   -1.466727
N      5.501847    0.487130   -0.118470
C     -0.594570    0.996219    0.058965
C     -0.575753    1.861465   -1.051067
C     -1.776973    2.208774   -1.683706
C     -2.992121    1.701509   -1.218491
C     -3.022723    0.842838   -0.109640
C     -1.819356    0.484088    0.516993
C     -4.329188    0.265785    0.372513
C     -4.575367   -1.133276   -0.218250
C     -5.816936   -1.741056    0.378811
O     -5.740358   -2.813293    1.036508
O     -7.051595   -1.121302    0.206455
N     -4.686564   -1.064037   -1.677567
O      0.633422    2.378114   -1.516901
O      0.038056    1.655100    2.846564
H      3.966397   -0.585758    2.411150
H      2.315390    0.695194    3.707321
H      1.422154   -0.376871   -1.053548
H      3.304320   -2.017160   -0.921621
H      4.446593   -1.966790    0.450427
H      4.065180    0.285254   -1.634915
H      6.651033   -2.248663   -0.477216
H      6.164002   -0.097255    0.441782
H      6.074335    1.147963   -0.693092
H     -1.769518    2.872338   -2.539040
H     -3.909222    1.975472   -1.725249
H     -1.834942   -0.199081    1.358530
H     -4.308539    0.200637    1.483203
H     -5.168620    0.945675    0.105374
H     -3.704993   -1.779340    0.038006
H     -7.893425   -1.520747    0.603729
H     -5.538450   -0.515125   -1.938773
H     -4.811158   -2.033574   -2.050621
H      0.672190    3.003230   -2.313417
H     -0.805334    2.067990    2.469488
