28

C      3.678728    1.534738   -0.436207
C      3.987330    0.155045   -1.019274
C      2.960200    0.306819    0.084531
N      1.555014    0.181468   -0.290965
C      0.538092    0.989963    0.313188
O      0.843670    1.855357    1.177971
C     -0.901171    0.780821   -0.047648
C     -1.489471   -0.389443    0.751890
C     -2.986105   -0.610708    0.443396
C     -3.188054   -1.075141   -0.976209
O     -2.860460   -2.244325   -1.311779
O     -3.703468   -0.211620   -1.939064
N     -3.571370   -1.586451    1.366010
O      3.329365   -0.116266    1.365514
H      3.081739    2.184374   -1.111339
H      4.475647    1.930959    0.228356
H      4.963316   -0.264591   -0.695314
H      3.570362   -0.007951   -2.035880
H      1.279795   -0.571030   -0.961574
H     -1.475163    1.708970    0.165741
H     -0.973103    0.576183   -1.137185
H     -1.375345   -0.169444    1.836538
H     -0.917797   -1.318563    0.531770
H     -3.523535    0.353805    0.582801
H     -3.956498    0.742238   -1.711325
H     -3.555054   -1.184972    2.331903
H     -2.982427   -2.451510    1.381273
H      3.195762   -1.098725    1.365789
