20

C     -2.544759   -0.742601   -0.074922
C     -1.116620   -0.267764   -0.038450
C     -0.845820    1.099073   -0.201284
C      0.469453    1.581562   -0.178548
C      1.524073    0.675941    0.013884
C      1.283889   -0.698610    0.184222
C     -0.048356   -1.175349    0.150345
O     -0.291416   -2.545034    0.294426
N      2.401849   -1.590752    0.384011
O      2.232214   -2.764952    0.771881
O      3.689820   -1.144116    0.193874
N      0.730904    2.987929   -0.348407
O      1.900062    3.426022   -0.330516
O     -0.304650    3.875093   -0.534631
H     -2.683447   -1.452095   -0.917626
H     -2.798505   -1.245893    0.881694
H     -3.256403    0.098665   -0.215894
H     -1.666062    1.790512   -0.348133
H      2.540480    1.046097    0.039576
H     -1.216704   -2.953729    0.274497
