41

C     -5.785680    1.382003    0.875710
C     -4.799004    0.259784    0.964800
C     -3.480462    0.498666    0.947173
C     -2.474457   -0.617025    1.040763
C     -2.459386   -1.506996   -0.214035
C     -2.170638   -0.751888   -1.527106
C     -0.808161   -0.040092   -1.566388
C      0.346889   -0.993747   -1.382415
O      0.504854   -1.899119   -2.189709
C      1.328805   -0.822295   -0.239137
C      1.499748   -2.130579    0.538435
C      2.669842   -0.330028   -0.736764
O      3.094116   -0.711745   -1.862347
N      3.501035    0.523271    0.069334
C      4.744794    1.126032   -0.389744
C      5.266098    1.917997    0.819182
C      4.250216    1.653515    1.879877
C      3.288675    0.877516    1.427354
H     -5.644846    1.934918   -0.077042
H     -5.647527    2.076982    1.730765
H     -6.818437    0.976162    0.905975
H     -5.168433   -0.758914    1.044424
H     -3.117005    1.521034    0.884523
H     -2.708510   -1.244448    1.927989
H     -1.465802   -0.187818    1.211141
H     -1.706424   -2.311081   -0.076142
H     -3.444667   -2.012403   -0.310153
H     -2.221209   -1.477872   -2.367776
H     -2.971054   -0.002133   -1.706515
H     -0.784796    0.772888   -0.811057
H     -0.696692    0.450180   -2.557269
H      0.914201   -0.068119    0.460365
H      0.521238   -2.467883    0.940252
H      1.915932   -2.927266   -0.115203
H      2.189638   -1.979936    1.395914
H      5.467752    0.333571   -0.681759
H      4.546951    1.801459   -1.250146
H      5.311045    3.005579    0.596629
H      6.262344    1.547073    1.142112
H      4.293559    2.039493    2.889775
H      2.455458    0.543262    2.030103
