18

C     -0.878004   -0.176764    1.729197
C     -0.411411   -0.394553    0.276378
C      1.133426   -0.383241    0.234530
C      1.671706   -0.662947   -1.141647
O      1.850290   -1.851834   -1.516153
O      1.945029    0.379442   -2.022809
C     -0.957262    0.712080   -0.603826
O     -1.487107    0.440994   -1.715571
O     -0.829633    2.042017   -0.210842
O     -0.865180   -1.652217   -0.171986
H     -1.987294   -0.128313    1.778842
H     -0.466500    0.769696    2.142078
H     -0.538309   -1.017273    2.371828
H      1.519744    0.599807    0.583312
H      1.530070   -1.154322    0.931564
H      1.799491    1.345396   -1.754786
H     -1.171919    2.792760   -0.798417
H     -1.857136   -1.660728   -0.111692
