40

C     -0.991321    3.618955   -0.606233
C     -0.242666    2.452366    0.054327
C      1.206293    2.406268   -0.463713
C      1.874779    1.095995   -0.063480
C      1.252333   -0.092343   -0.832786
C     -0.301647    0.078994   -1.063805
C     -1.014968    1.100304   -0.130462
C     -1.350642    0.446745    1.219429
C     -2.263284   -0.772749    1.031995
C     -1.878108   -1.657243   -0.136877
C     -1.052691   -1.235333   -1.117121
C     -2.530289   -3.006068   -0.266563
C      1.738466   -1.487106   -0.303553
C      3.265460   -1.645336   -0.388725
C      1.258230   -1.823621    1.086598
O      1.748849   -1.295866    2.072527
H     -1.098418    3.444623   -1.698556
H     -2.002312    3.725710   -0.158028
H     -0.441264    4.571013   -0.445799
H     -0.184678    2.696481    1.139595
H      1.779780    3.255556   -0.031256
H      1.233663    2.511055   -1.571687
H      2.957880    1.170380   -0.301402
H      1.780015    0.965851    1.033537
H      1.689797   -0.026257   -1.856562
H     -0.414160    0.511494   -2.084683
H     -1.999519    1.323466   -0.605542
H     -0.423653    0.152022    1.747050
H     -1.878711    1.178533    1.869515
H     -3.304974   -0.421202    0.868173
H     -2.251422   -1.371167    1.968397
H     -0.851738   -1.892064   -1.960112
H     -3.222994   -3.197016    0.580227
H     -3.110324   -3.057015   -1.212390
H     -1.752308   -3.798572   -0.271042
H      1.331036   -2.265216   -0.984212
H      3.552237   -2.690747   -0.143891
H      3.620501   -1.424444   -1.417771
H      3.782118   -0.967882    0.323377
H      0.490651   -2.578566    1.219784
