21

C     -1.395844   -2.173592    0.196955
C     -1.346498   -0.793997   -0.466612
C     -2.725208   -0.126848   -0.445739
C     -0.325859    0.081941    0.214673
O     -0.472977    0.382754    1.431619
N      0.809623    0.570540   -0.512741
C      1.813925    1.419364    0.126120
C      2.899084    1.775436   -0.844177
O      2.874586    2.886873   -1.435217
O      3.914341    0.868331   -1.132041
H     -2.111760   -2.830696   -0.341505
H     -0.392626   -2.649962    0.160029
H     -1.715696   -2.091053    1.258202
H     -1.056524   -0.939324   -1.530314
H     -3.082728    0.010653    0.597634
H     -3.460381   -0.752869   -0.995177
H     -2.675362    0.865941   -0.942331
H      0.914364    0.310318   -1.520265
H      2.260574    0.880809    0.989202
H      1.330062    2.346325    0.503707
H      3.944905   -0.040944   -0.686471
