34

C     -2.276793   -0.034130    0.112961
C     -1.947674   -1.422317   -0.415402
C     -0.424097   -1.560208   -0.466021
C      0.268082   -0.257459   -0.987995
O     -0.632147    0.642164   -1.638588
C     -1.809305    1.027315   -0.912138
C     -1.596789    2.380588   -0.255566
O     -0.838726    3.221920   -0.806570
O     -2.314861    2.776737    0.873208
O     -2.854253    1.175027   -1.842429
C      1.154039    0.468038    0.075760
C      2.501715   -0.263870    0.351570
C      3.377881    0.513622    1.353357
O      2.716243    0.685098    2.578617
O      2.273909   -1.557734    0.845412
O      1.424513    1.783864   -0.340622
O     -0.076358   -2.645010   -1.290167
O     -2.482762   -2.403250    0.435414
H     -1.779529    0.110245    1.098421
H     -3.374044    0.049430    0.279594
H     -2.365780   -1.544488   -1.443626
H     -0.085957   -1.766960    0.574152
H      0.974805   -0.571523   -1.787907
H     -3.023910    2.196222    1.301884
H     -2.522957    1.750370   -2.581942
H      0.582655    0.531626    1.026119
H      3.063257   -0.330241   -0.610304
H      4.342686   -0.021962    1.506872
H      3.629391    1.513263    0.940529
H      2.791635   -0.175790    3.067000
H      3.109128   -2.074938    0.700689
H      1.906758    1.731710   -1.207543
H     -0.256214   -3.473306   -0.772735
H     -3.454540   -2.454054    0.237996
