31

C     -2.881779    0.205604    0.108936
C     -1.976297    0.831130   -0.968257
C     -0.579901    1.138333   -0.417400
C      0.183607   -0.148065    0.067762
C      1.098985   -0.706384   -1.065393
C      2.330558    0.165758   -1.350038
C      3.081121    0.495161   -0.058349
N      2.192332    1.119088    0.927488
C      1.090557    0.214381    1.287405
C     -0.836260   -1.266825    0.517775
C     -2.108031   -0.651002    1.130810
O     -1.201557   -2.085379   -0.568990
H     -3.418760    1.012181    0.654276
H     -3.649839   -0.421674   -0.393817
H     -1.884925    0.140746   -1.834746
H     -2.443325    1.768510   -1.340983
H     -0.011672    1.685701   -1.195715
H     -0.710810    1.854618    0.424150
H      1.460713   -1.719422   -0.778322
H      0.519993   -0.816791   -2.008238
H      3.012336   -0.381658   -2.036183
H      2.038440    1.105516   -1.862869
H      3.531374   -0.429231    0.366926
H      3.914317    1.192991   -0.290028
H      1.810324    2.011860    0.537274
H      0.485788    0.691188    2.088558
H      1.522960   -0.708080    1.736131
H     -0.360070   -1.913130    1.292437
H     -2.770777   -1.457349    1.513688
H     -1.826520   -0.021279    2.002432
H     -1.612879   -2.906497   -0.191014
