27

C      0.086231   -2.974519    0.230139
C      0.367050   -1.507982    0.018819
C      1.699635   -1.090383   -0.121878
C      2.017686    0.262917   -0.300728
C      0.979751    1.202722   -0.372208
C     -0.365949    0.807868   -0.256706
C     -0.678621   -0.554172   -0.054649
C     -2.098069   -0.973712    0.061507
O     -2.532652   -1.914500   -0.655600
C     -3.041678   -0.282115    0.996142
O     -1.413220    1.740241   -0.358327
C     -1.241409    3.139456   -0.558974
C      3.427496    0.704192   -0.440214
O      3.689309    1.783642   -1.034859
O      4.484129   -0.038423    0.085753
H     -0.665506   -3.112265    1.035704
H     -0.293158   -3.421121   -0.712478
H      1.001696   -3.525139    0.535005
H      2.486335   -1.833154   -0.108964
H      1.226185    2.245644   -0.518239
H     -3.703099   -1.029301    1.483044
H     -2.481885    0.258821    1.788333
H     -3.667817    0.438213    0.429708
H     -0.721036    3.326440   -1.521965
H     -0.663655    3.577823    0.281952
H     -2.238219    3.624584   -0.594819
H      4.340468   -0.855775    0.664501
