12

C     -1.781636   -0.249827    0.245066
C     -0.305980   -0.285999   -0.122044
O      0.415977    0.525087    0.779705
C      1.784347    0.493555    0.441908
H     -2.162716    0.791808    0.185832
H     -2.359706   -0.885278   -0.458726
H     -1.926014   -0.632767    1.277657
H      0.040088   -1.343677   -0.068458
H     -0.197828    0.088191   -1.165884
H      1.957321    0.901746   -0.578839
H      2.339771    1.134132    1.157287
H      2.196375   -0.536972    0.523840
