15

C     -2.045255   -0.791311   -0.080006
C     -0.693778   -0.263236    0.392060
C      0.034529    0.476385   -0.733566
C      1.359084    0.987923   -0.253864
O      1.454919    2.165193    0.184619
N      2.503989    0.135451   -0.249675
H     -1.908666   -1.503038   -0.921971
H     -2.549290   -1.321862    0.755122
H     -2.693635    0.048113   -0.410274
H     -0.075159   -1.119289    0.740475
H     -0.856132    0.426073    1.249612
H     -0.585375    1.329823   -1.086256
H      0.196592   -0.209107   -1.593671
H      3.423056    0.488877    0.097602
H      2.435121   -0.849994   -0.587958
