30

C     -3.465146   -1.640512    1.433187
C     -2.894622   -1.464495    0.026510
C     -2.846904    0.006731   -0.421728
C     -1.965150    0.924524    0.449208
C     -0.496513    0.483699    0.581401
C      0.238259    0.447068   -0.764513
C      1.696386    0.171627   -0.554200
O      2.120300   -1.014055   -0.621336
N      2.592202    1.245295   -0.233756
C      4.008397    1.027756    0.047959
C      4.176729    0.407166    1.401180
O      3.999582    1.104470    2.434398
O      4.497956   -0.940882    1.532747
H     -3.604479   -2.722150    1.642168
H     -4.449603   -1.133418    1.519554
H     -2.768034   -1.229666    2.192697
H     -1.886110   -1.924848   -0.031348
H     -3.544432   -2.020535   -0.683353
H     -2.497454    0.049429   -1.475059
H     -3.881774    0.413416   -0.419879
H     -2.407426    1.003034    1.465116
H     -1.992351    1.948334    0.016245
H     -0.433864   -0.507897    1.077709
H      0.014053    1.212346    1.249305
H      0.120807    1.420198   -1.288564
H     -0.188761   -0.348243   -1.411846
H      2.222552    2.222381   -0.202113
H      4.459034    0.387352   -0.740267
H      4.540857    2.003103    0.032974
H      4.635510   -1.531231    0.721355
