10

C      0.646307   -1.029021   -0.004325
C     -0.683448   -1.004746   -0.001109
C     -1.100798    0.395412    0.003683
O     -2.293491    0.797343    0.007592
N      0.023030    1.261096    0.003375
C      1.114501    0.354971   -0.001675
O      2.321075    0.713100   -0.003567
H      1.259885   -1.920175   -0.008199
H     -1.329153   -1.872911   -0.001939
H      0.042091    2.304931    0.006164
