37

C      5.300088    1.631726    0.225790
O      3.903101    1.512798   -0.013146
C      3.079891    0.672078    0.741272
O      3.558359   -0.029874    1.673907
C      1.623027    0.574923    0.407624
C      1.389766   -0.358341   -0.798911
C      1.749357   -1.824687   -0.504538
C      0.973261   -2.657251   -1.518539
C     -0.124385   -1.756225   -1.951001
O     -0.985912   -2.104060   -2.743573
C     -0.051664   -0.381977   -1.365689
C     -1.163452   -0.183717   -0.306432
C     -2.543498   -0.149365   -0.922185
C     -3.676414   -0.036802   -0.205396
C     -3.727282    0.107330    1.295824
C     -3.604483    1.572851    1.724225
O     -4.658041    2.335588    1.199248
H      5.733129    2.354343   -0.495849
H      5.479275    2.001734    1.257520
H      5.794106    0.646445    0.088981
H      1.065497    0.212187    1.298699
H      1.255995    1.594093    0.159979
H      2.054584   -0.014038   -1.625951
H      2.843403   -1.999370   -0.597576
H      1.422889   -2.102082    0.522628
H      1.612944   -2.913236   -2.390485
H      0.567636   -3.580590   -1.051922
H     -0.147791    0.386074   -2.165599
H     -1.105736   -1.002893    0.443186
H     -1.010320    0.784366    0.210016
H     -2.640116   -0.218907   -2.001821
H     -4.621983   -0.035382   -0.740238
H     -4.700935   -0.289244    1.655832
H     -2.935174   -0.497784    1.783915
H     -3.601655    1.636136    2.836039
H     -2.644080    1.997193    1.366542
H     -5.463384    2.115961    1.736772
