15

C     -1.267911    0.942084   -0.666468
C     -0.506140   -0.109661    0.099336
C      0.828107   -0.276022   -0.014836
C      1.741301    0.512540   -0.876772
O      1.321089    1.447453   -1.607319
O      3.102028    0.218979   -0.885599
C     -1.257121   -1.019431    1.035100
H     -1.157791    0.771746   -1.758061
H     -0.894206    1.952639   -0.398437
H     -2.352237    0.913930   -0.431801
H      1.293836   -1.058190    0.574222
H      3.486158   -0.524379   -0.314430
H     -1.127658   -2.075622    0.716490
H     -0.865661   -0.901835    2.067933
H     -2.343792   -0.794231    1.050171
