16

C     -1.376584    1.089067    0.630126
C     -0.321112   -0.009494    0.441083
C      0.541600    0.276759   -0.799646
C      1.655280   -0.720611   -0.927650
O      1.533299   -1.703037   -1.705774
O      2.812169   -0.590858   -0.164930
N     -0.956715   -1.325174    0.325692
H     -2.051049    1.141070   -0.251364
H     -0.883063    2.075337    0.763676
H     -1.985330    0.880641    1.535434
H      0.337373   -0.008646    1.338902
H     -0.088774    0.254408   -1.716010
H      0.985716    1.292850   -0.721554
H      2.929675    0.181072    0.480456
H     -1.466958   -1.530837    1.215448
H     -1.665528   -1.302547   -0.443891
