47

C     -1.633636   -4.484787    0.053002
N     -1.878553   -3.067785    0.363255
C     -3.174851   -2.648069   -0.201859
C     -3.482844   -1.205159    0.203534
C     -2.365506   -0.258849   -0.272547
C     -0.978498   -0.757292    0.216836
C     -0.786000   -2.237112   -0.181161
C      0.160912    0.105687   -0.358560
O      1.415008   -0.329497    0.162452
C      2.650938    0.245625   -0.164984
C      3.812866   -0.294326    0.421578
C      5.040240    0.276042    0.097091
C      5.142385    1.323979   -0.757788
C      4.026159    1.892380   -1.362272
C      2.765154    1.345521   -1.061377
O      6.470163    1.680547   -0.893250
C      7.250788    0.801005   -0.071644
O      6.298845   -0.079262    0.542349
C     -2.658712    1.166784    0.167086
C     -2.883796    2.166551   -0.797150
C     -3.144827    3.483048   -0.405681
C     -3.185206    3.816630    0.950177
C     -2.964886    2.833264    1.917456
C     -2.703253    1.515356    1.531574
F     -3.438095    5.094176    1.327107
H     -2.436686   -5.116561    0.490017
H     -1.593761   -4.657535   -1.045932
H     -0.674655   -4.815716    0.506669
H     -3.988296   -3.295755    0.194116
H     -3.174815   -2.736217   -1.312984
H     -3.587541   -1.161571    1.309561
H     -4.451316   -0.898090   -0.248612
H     -2.360987   -0.299579   -1.386436
H     -0.934093   -0.696058    1.326816
H      0.184311   -2.591333    0.232992
H     -0.737076   -2.329843   -1.291337
H      0.007817    1.168611   -0.073197
H      0.168534    0.028079   -1.468142
H      3.756172   -1.130444    1.106466
H      4.125583    2.728409   -2.041971
H      1.890345    1.779715   -1.525346
H      7.960435    0.220906   -0.698063
H      7.791864    1.381615    0.704657
H     -2.854395    1.930036   -1.853409
H     -3.315096    4.244795   -1.155619
H     -2.996134    3.091233    2.968233
H     -2.535006    0.770846    2.298503
