45

C     -1.513141   -2.654174   -0.935254
C     -1.883330   -1.191236   -0.622819
C     -3.202660   -1.166122    0.179504
C     -3.657846    0.260046    0.499248
C     -2.555252    1.061521    1.206691
C     -1.212089    1.082423    0.415977
C     -0.755848   -0.401633    0.138232
C      0.583677   -0.392283   -0.672581
C      1.633270    0.666280   -0.197516
C      1.292586    1.224622    1.203366
C     -0.130251    1.820476    1.283305
C      3.127494    0.187729   -0.330915
C      3.486750   -0.973166    0.634079
C      3.407968   -0.275287   -1.774826
O      3.985776    1.283889   -0.097821
O     -0.547763   -1.023107    1.393641
C     -1.430632    1.909897   -0.890748
H     -0.614902   -2.709912   -1.582974
H     -2.342234   -3.140982   -1.492229
H     -1.338331   -3.238226   -0.008102
H     -2.069105   -0.717223   -1.608553
H     -4.005592   -1.666854   -0.404755
H     -3.080302   -1.729869    1.130864
H     -3.982579    0.772699   -0.429942
H     -4.546883    0.210658    1.164555
H     -2.399340    0.612601    2.212908
H     -2.917255    2.100083    1.373318
H      1.019100   -1.407921   -0.642526
H      0.362777   -0.202786   -1.746115
H      1.553179    1.536402   -0.884121
H      2.007187    2.026150    1.484551
H      1.390956    0.425134    1.966028
H     -0.077922    2.897417    1.007656
H     -0.416110    1.814907    2.358433
H      3.350551   -0.677481    1.693991
H      2.880529   -1.880680    0.441905
H      4.555504   -1.249780    0.507267
H      2.860636   -1.207832   -2.025088
H      3.114820    0.514249   -2.499724
H      4.493200   -0.474774   -1.908732
H      4.092653    1.411109    0.880438
H     -0.043876   -1.867128    1.264830
H     -2.171943    1.459160   -1.574905
H     -1.804521    2.926543   -0.641913
H     -0.498909    2.044463   -1.468630
