29

C     -3.381300    0.744884   -0.646332
C     -2.116080    0.341333    0.138085
C     -2.479696   -0.808722    1.093493
C     -1.008516   -0.089946   -0.871397
C      0.281984   -0.679694   -0.265744
C      1.066649    0.317339    0.599322
C      2.451676   -0.210994    0.905052
C      2.642874   -0.936722    2.012163
C      3.601511    0.011081   -0.009800
C      3.493208    0.555570   -1.222197
O     -1.690541    1.438522    0.910332
H     -3.150619    1.558452   -1.367325
H     -4.167041    1.112952    0.048079
H     -3.787234   -0.120955   -1.213071
H     -2.723495   -1.731666    0.524393
H     -3.359041   -0.533590    1.714952
H     -1.642111   -1.023180    1.789683
H     -1.430866   -0.861474   -1.552980
H     -0.734494    0.776206   -1.513603
H      0.924209   -1.002639   -1.114272
H      0.055548   -1.594718    0.321144
H      0.520568    0.491444    1.551080
H      1.137985    1.303233    0.093522
H      3.616658   -1.344676    2.254550
H      1.826249   -1.141745    2.693579
H      4.589240   -0.299118    0.312149
H      2.545026    0.869389   -1.634772
H      4.377435    0.679969   -1.833780
H     -1.459786    2.179463    0.290260
