40

C      0.367126   -2.815361   -0.649750
C      0.556287   -1.370853   -1.151870
C      2.019886   -1.139788   -1.524769
C      2.692585   -0.671657   -0.246746
C      1.620820    0.082455    0.551709
C      0.254243   -0.260520   -0.093494
C     -0.849513   -0.577368    0.951764
C     -2.134620    0.096812    0.448850
C     -1.620821    1.386750   -0.223500
C     -0.216308    1.054752   -0.767555
C      0.786424    2.073339   -0.352499
C      1.757911    1.563134    0.383748
C      2.853817    2.373599    0.961375
O      2.915052    3.609738    0.725844
O      3.829355    1.797091    1.772362
O     -2.476753    1.814381   -1.252807
C     -2.875109   -0.827941   -0.547422
C     -3.081541    0.419022    1.623668
H     -0.712601   -3.051874   -0.551266
H      0.876495   -2.970043    0.325392
H      0.781899   -3.537481   -1.384964
H     -0.068527   -1.257385   -2.063961
H      2.518024   -2.044096   -1.937950
H      2.082222   -0.330563   -2.286193
H      3.586582   -0.050786   -0.475878
H      3.026934   -1.558510    0.335265
H      1.674137   -0.196168    1.627235
H     -0.999228   -1.651099    1.173732
H     -0.569133   -0.112617    1.923849
H     -1.550600    2.191503    0.549101
H     -0.224827    0.992039   -1.878343
H      0.708709    3.122576   -0.609530
H      3.826224    0.812034    2.004199
H     -2.172953    2.722837   -1.513659
H     -3.093727   -1.811351   -0.078507
H     -3.842004   -0.376023   -0.856663
H     -2.276910   -1.001059   -1.463420
H     -2.581866    1.065063    2.377472
H     -3.984633    0.952508    1.256715
H     -3.403060   -0.517085    2.129088
