39

C     -0.398933   -1.930666   -2.172571
C     -0.745215   -1.576645   -0.713531
C     -2.261441   -1.471586   -0.550432
C     -2.605425   -0.026785   -0.870534
C     -1.378045    0.806497   -0.477578
C     -0.217078   -0.188085   -0.232644
C      1.128849    0.294553   -0.833773
C      2.216463   -0.045162    0.195215
C      1.508118    0.090103    1.552530
C      0.014581   -0.169000    1.300002
C     -0.837926    0.946268    1.796692
C     -1.572781    1.483789    0.840975
C     -2.481308    2.623704    1.055136
O     -3.133405    3.099928    0.087784
O     -2.622197    3.182262    2.322606
C      2.734397   -1.485799   -0.008729
C      3.404733    0.932207    0.085804
H     -0.641521   -1.089469   -2.856588
H     -0.967411   -2.827910   -2.497813
H      0.676492   -2.189441   -2.262466
H     -0.370175   -2.406028   -0.075466
H     -2.533158   -1.684092    0.507570
H     -2.824354   -2.176522   -1.200688
H     -2.779973    0.071640   -1.964579
H     -3.533570    0.284909   -0.342642
H     -1.153546    1.554548   -1.270171
H      1.367049   -0.101369   -1.839416
H      1.093227    1.400926   -0.952961
H      1.662156    1.111517    1.970279
H      1.908732   -0.629123    2.300868
H     -0.301952   -1.110629    1.800501
H     -0.848062    1.277801    2.827652
H     -3.243774    3.966761    2.478760
H      1.926884   -2.231076    0.132302
H      3.152097   -1.609379   -1.031028
H      3.536963   -1.716513    0.724554
H      4.166585    0.704072    0.862055
H      3.072304    1.983380    0.227010
H      3.881622    0.850412   -0.914682
