15

C     -0.171975   -1.684748   -0.405699
N      1.059690   -1.983822    0.075954
C      1.848669   -1.026085    0.620921
O      2.986225   -1.332590    1.065557
N      1.415620    0.261307    0.680652
C      0.191913    0.620986    0.197241
C     -0.659824   -0.373540   -0.341881
C     -2.042037   -0.121432   -0.803234
O     -2.717331    0.850825   -0.375289
N     -0.170373    2.008285    0.202163
H     -0.781477   -2.479421   -0.817747
H      2.045845    0.990871    1.085329
H     -2.514292   -0.821645   -1.480680
H     -0.901138    2.393918   -0.433075
H      0.410486    2.697092    0.729789
