47

C     -3.079280   -0.667989   -2.470976
C     -2.623591    0.148972   -1.288767
C     -1.671180   -0.338714   -0.455915
C     -0.986220   -1.654788   -0.629015
C      0.086370   -1.594333    0.475061
C      1.429228   -0.810694    0.095783
C      1.666474   -0.590912   -1.420154
C      2.626305    0.583814   -1.548209
C      2.490629    1.405734   -0.259975
C      1.435535    0.678036    0.635505
C     -0.008291    1.300165    0.478221
C     -1.151232    0.286510    0.822743
N     -0.552971   -0.841711    1.564218
C     -1.529714   -1.652059    2.323206
O     -2.184778    0.899308    1.558612
C      1.875642    0.815785    2.124771
N      2.134497    2.798211   -0.549200
C      2.625412   -1.633468    0.649925
C     -3.281813    1.457970   -1.058479
O     -2.604338    2.463715   -0.720232
O     -4.655089    1.604419   -1.240381
H     -2.210290   -0.958768   -3.097296
H     -3.768436   -0.090455   -3.122306
H     -3.604621   -1.580432   -2.118345
H     -0.590334   -1.853588   -1.642115
H     -1.710187   -2.469693   -0.413361
H      0.318883   -2.637982    0.789394
H      2.053049   -1.498010   -1.934431
H      0.746949   -0.253492   -1.937878
H      2.390257    1.183362   -2.455890
H      3.666969    0.204070   -1.650766
H      3.489421    1.398712    0.237072
H     -0.143628    1.661679   -0.564790
H     -0.099240    2.207258    1.115032
H     -1.839035   -1.100027    3.234962
H     -2.438538   -1.884649    1.727799
H     -1.063693   -2.600912    2.664635
H     -1.787258    1.218747    2.410535
H      2.919827    0.473626    2.280953
H      1.839442    1.881060    2.437473
H      1.229680    0.241821    2.816575
H      2.129352    3.325893    0.353635
H      2.900551    3.219575   -1.123723
H      2.690022   -2.614917    0.132498
H      2.495725   -1.837786    1.734178
H      3.592769   -1.108519    0.504155
H     -5.249230    0.815456   -1.464737
