45

C     -3.183823    2.338927   -0.383500
C     -2.987813    1.087136    0.484247
C     -1.517159    0.956860    0.972838
C     -1.130684   -0.525187    1.233332
C     -2.377458   -1.330209    1.632774
C     -3.495742   -1.197716    0.548294
O     -3.335273   -0.052332   -0.279302
O     -3.497900   -2.327855   -0.286310
O     -2.021796   -2.672357    1.849049
O     -0.590498   -1.087903    0.044491
C      0.810239   -1.265434    0.139901
C      1.318728   -1.959459   -1.117058
C      2.679579   -1.337709   -1.295434
C      2.476769    0.058577   -0.706483
O      1.461009   -0.014558    0.271444
C      3.773345    0.628644   -0.093642
C      3.597801    2.096219    0.326642
O      3.358511    2.896879   -0.798128
O      4.139116   -0.136427    1.027095
O      3.091305   -1.307516   -2.641502
O      1.406480   -3.346873   -0.924248
O     -1.306115    1.741382    2.121379
O     -2.877308    3.502871    0.336519
H     -2.525104    2.285698   -1.276801
H     -4.235524    2.382192   -0.748061
H     -3.677856    1.184311    1.356840
H     -0.837564    1.347693    0.183744
H     -0.422785   -0.566482    2.098128
H     -2.760595   -0.901305    2.589270
H     -4.484706   -1.119744    1.062045
H     -4.051713   -3.021298    0.159360
H     -2.763969   -3.084161    2.364441
H      1.066448   -1.896327    1.023968
H      0.649987   -1.721678   -1.978757
H      3.427952   -1.909886   -0.701809
H      2.122778    0.744320   -1.508893
H      4.577725    0.577048   -0.865597
H      4.527081    2.443803    0.830996
H      2.753223    2.187943    1.046439
H      3.238531    3.821387   -0.457468
H      5.104447    0.031595    1.188103
H      2.410475   -0.810831   -3.166696
H      1.587473   -3.742378   -1.816631
H     -1.867514    1.367995    2.849858
H     -3.630103    3.654142    0.965993
