17

C     -1.116209    1.261904    0.959902
C     -1.019945    0.395435   -0.298859
C     -1.677836   -0.968996   -0.075200
C      0.416633    0.221692   -0.703861
O      0.805127    0.645019   -1.827051
O      1.312744   -0.407785    0.166627
C      2.684101   -0.603570   -0.155491
H     -0.646858    2.252501    0.777780
H     -0.603377    0.773511    1.816617
H     -2.181436    1.427272    1.228557
H     -1.569061    0.913235   -1.116905
H     -2.751667   -0.837804    0.177594
H     -1.180052   -1.517159    0.753783
H     -1.611802   -1.580475   -1.000659
H      3.178995    0.376579   -0.322387
H      3.186173   -1.121063    0.687466
H      2.774469   -1.230296   -1.067914
