33

C     -4.293691   -0.439472    0.255383
C     -2.809058   -0.707666    0.291997
C     -2.330211   -1.982013    0.661887
C     -0.960735   -2.241089    0.651394
C     -0.037697   -1.251696    0.283167
C     -0.495627    0.036091   -0.069809
C     -1.885218    0.312482   -0.032370
O     -2.349376    1.599918   -0.318212
C     -2.638911    2.528962    0.719823
C      0.497835    1.072514   -0.474198
O      0.113105    2.210742   -0.857922
C      1.949005    0.771549   -0.448081
C      2.396099   -0.513825   -0.082319
C      1.413401   -1.559200    0.278101
O      1.813347   -2.716332    0.584854
C      3.775929   -0.790444   -0.065180
C      4.703564    0.201063   -0.407836
C      4.257384    1.473029   -0.769598
C      2.891036    1.759198   -0.790986
O      6.070320   -0.068459   -0.391721
O     -3.187897   -3.014175    1.051503
H     -4.808528   -1.230080   -0.329749
H     -4.539561    0.523980   -0.235526
H     -4.695248   -0.422147    1.290217
H     -0.619975   -3.229317    0.935581
H     -2.995277    3.478244    0.270413
H     -3.428650    2.127454    1.388745
H     -1.722376    2.732210    1.313042
H      4.135182   -1.773283    0.213751
H      4.971455    2.242275   -1.035215
H      2.572825    2.754361   -1.075303
H      6.427598   -0.981037   -0.133952
H     -4.190051   -2.903839    1.135197
