37

C     -3.186055   -0.249883   -1.241210
C     -1.774836   -0.626652   -0.744394
C     -1.751197   -0.719761    0.791074
C     -0.386851   -0.205291    1.247076
C      0.601875   -1.318638    1.322088
C      1.655238   -1.116053    0.552284
C      1.624096    0.226992   -0.098051
C      0.151699    0.728648    0.139036
C     -0.746259    0.468258   -1.108426
C      0.071900    2.214323    0.530744
C     -1.069945    2.760441    0.974843
C      1.255245    3.070519    0.307695
O      1.150304    4.322951    0.214902
O      2.504684    2.477137    0.177219
C      2.692638    1.123555    0.559043
C      2.748033   -2.091482    0.381459
O      2.734147   -3.184267    1.010063
O      3.798820   -1.810604   -0.486283
C     -1.372322   -1.978605   -1.375938
H     -3.195996   -0.158369   -2.348761
H     -3.511446    0.721892   -0.810490
H     -3.922801   -1.026690   -0.942886
H     -2.533416   -0.068115    1.237221
H     -1.956316   -1.750507    1.158599
H     -0.449839    0.287706    2.242674
H      0.451230   -2.212098    1.915582
H      1.868826    0.133673   -1.178226
H     -1.270562    1.401517   -1.414612
H     -0.158711    0.180272   -2.006810
H     -1.966596    2.170723    1.092976
H     -1.131592    3.812118    1.224686
H      3.709066    0.801387    0.249294
H      2.629431    1.054723    1.668432
H      4.555958   -2.470725   -0.616915
H     -0.348343   -2.278072   -1.073862
H     -2.076273   -2.780394   -1.065102
H     -1.393835   -1.910626   -2.485025
