29

C      4.796373    0.408524    0.492543
C      4.408102    0.020919   -0.789604
C      3.053624   -0.142655   -1.097603
C      2.059714    0.081564   -0.117341
C      2.475187    0.473119    1.173282
C      3.830855    0.634311    1.472693
C      0.597863   -0.078207   -0.390964
C      0.089095   -0.463471   -1.641013
C     -1.288880   -0.591767   -1.820778
O     -1.701993   -0.939050   -2.956344
C     -2.171657   -0.333574   -0.743636
C     -3.597618   -0.431988   -0.809366
C     -4.359724   -0.149442    0.329719
C     -3.756546    0.225637    1.525721
C     -2.371588    0.327894    1.612860
C     -1.575643    0.051604    0.489128
O     -0.255375    0.157156    0.600530
O     -1.800327    0.706738    2.828248
O     -4.319702   -0.798122   -1.950831
H      5.845711    0.533904    0.726415
H      5.159329   -0.153879   -1.549202
H      2.811471   -0.443347   -2.103908
H      1.753003    0.656887    1.958586
H      4.132444    0.935151    2.467794
H      0.731976   -0.667946   -2.483072
H     -5.439395   -0.222465    0.285230
H     -4.370667    0.438518    2.391701
H     -0.798857    0.797532    2.950323
H     -3.936775   -1.033546   -2.851108
