48

C     -0.172410   -5.209292    0.979736
N     -0.532722   -3.994074    0.245434
C     -0.265965   -3.887479   -1.189519
C      0.103920   -2.481683   -1.546832
O      0.902029   -2.287001   -2.504260
N     -0.487609   -1.365154   -0.843485
C     -1.536033   -1.644055    0.179106
C     -1.250923   -2.940382    0.907955
O     -1.693878   -3.120558    2.076538
C     -1.696801   -0.485850    1.193090
C     -1.759184    0.804987    0.463672
C     -1.086444    1.034834   -0.711341
C     -0.231432    0.000295   -1.376022
C      1.222706    0.380581   -1.198751
C      1.883688    0.151439    0.031794
C      3.211776    0.549537    0.146597
C      3.873823    1.149899   -0.873483
C      3.264813    1.406384   -2.097158
C      1.921853    1.019957   -2.256503
O      5.167030    1.434127   -0.479460
C      5.326841    0.983903    0.873182
O      4.055188    0.426528    1.233763
N     -1.215352    2.323401   -1.104534
C     -1.971493    2.908701   -0.155504
C     -2.358994    4.246066   -0.089185
C     -3.122800    4.655109    1.019948
C     -3.471632    3.731097    2.030905
C     -3.062020    2.387920    1.942651
C     -2.315560    2.011158    0.827719
H     -1.086772   -5.682704    1.395799
H      0.517640   -4.951738    1.810610
H      0.330148   -5.948574    0.320848
H     -1.181064   -4.169276   -1.751968
H      0.557079   -4.572538   -1.488918
H     -2.504757   -1.770998   -0.352470
H     -2.629455   -0.624772    1.781604
H     -0.832605   -0.457014    1.890928
H     -0.495996    0.007124   -2.456908
H      1.383463   -0.320860    0.866097
H      3.806239    1.891186   -2.898724
H      1.426369    1.218737   -3.198451
H      6.115690    0.204580    0.926822
H      5.571306    1.840536    1.535689
H     -0.786819    2.775296   -1.943000
H     -2.078289    4.949302   -0.862518
H     -3.440779    5.686304    1.101679
H     -4.055060    4.059585    2.881109
H     -3.318751    1.675428    2.715720
