40

C      6.049634    0.731639    1.165199
C      6.053655   -0.637283    0.884124
C      4.882556   -1.271991    0.460040
C      3.695716   -0.536588    0.314375
C      2.513821   -1.161895   -0.110207
C      1.330200   -0.428104   -0.254054
C      1.334717    0.951676    0.029316
C      2.506818    1.583777    0.453009
C      3.691949    0.849913    0.599108
C      4.874490    1.475410    1.024113
O      0.178145   -1.107076   -0.681216
C     -1.109345   -0.512025   -0.839379
C     -2.074606   -1.553760   -1.440240
C     -3.544116   -1.279739   -1.013467
C     -3.789063    0.213921   -0.692125
C     -2.691995    0.787725    0.265801
O     -1.586812   -0.090056    0.423211
C     -3.263779    1.088365    1.660134
O     -4.249166    2.084709    1.593573
O     -3.780582    0.955517   -1.886907
O     -3.915874   -2.087102    0.078498
O     -1.960985   -1.522940   -2.840374
H      6.959545    1.217455    1.493174
H      6.966679   -1.207869    0.995221
H      4.904322   -2.334080    0.246685
H      2.506612   -2.223175   -0.330353
H      0.438792    1.547298   -0.075289
H      2.486544    2.646109    0.665761
H      4.889748    2.535793    1.246343
H     -1.008996    0.350873   -1.541820
H     -1.778795   -2.565460   -1.071894
H     -4.217601   -1.565030   -1.851596
H     -4.798029    0.306469   -0.223822
H     -2.315676    1.757903   -0.135316
H     -2.444204    1.409802    2.343170
H     -3.712672    0.168009    2.090071
H     -3.773698    2.947836    1.472672
H     -4.647312    0.786859   -2.341405
H     -3.268430   -1.933236    0.813575
H     -2.332206   -2.379650   -3.178487
