29

C     -1.005932    1.896651    1.105683
N     -0.506029    0.616576    0.573541
C     -1.450987   -0.484337    0.793176
C     -2.505488   -0.382169   -0.319607
C     -1.795908    0.362292   -1.442485
C     -0.385754    0.631495   -0.890589
C      0.583110   -0.513434   -1.292995
C      0.247858   -1.801803   -0.551382
O      0.748328   -2.852877   -0.921735
C     -0.658997   -1.805327    0.668061
C      2.002224   -0.117062   -0.994311
O      2.791438    0.143299   -1.943529
O      2.430099   -0.012901    0.333610
C      3.751456    0.377824    0.684755
H     -1.110715    1.828585    2.209339
H     -1.988092    2.178911    0.668902
H     -0.272985    2.703168    0.891014
H     -1.925851   -0.434925    1.799356
H     -3.377175    0.208330    0.038260
H     -2.870261   -1.376329   -0.659357
H     -1.786225   -0.234246   -2.380822
H     -2.312741    1.325674   -1.646155
H     -0.000250    1.606185   -1.270371
H      0.491905   -0.699351   -2.386869
H     -0.027349   -1.937972    1.572483
H     -1.359607   -2.667057    0.617667
H      4.485071   -0.342354    0.264568
H      3.961530    1.397411    0.297797
H      3.847326    0.385744    1.789816
