14

C     -3.040496   -0.708580   -0.093417
O     -1.736460   -0.531660    0.446764
C     -0.658469   -0.079723   -0.320487
O     -0.809509    0.191854   -1.542782
C      0.658468    0.079725    0.301361
O      0.809509   -0.191855    1.523655
O      1.736460    0.531663   -0.465890
C      3.040496    0.708579    0.074290
H     -3.719475   -1.072539    0.704732
H     -3.426029    0.258296   -0.480766
H     -3.014194   -1.457727   -0.912935
H      3.719475    1.072536   -0.723860
H      3.426027   -0.258297    0.461639
H      3.014197    1.457727    0.893808
