18

C     -1.416033   -0.428223    0.807421
C     -1.394636   -0.986890   -0.611721
N     -0.074472   -0.728108   -1.196876
C      0.760003   -0.159315   -0.136227
C     -0.186430    0.455863    0.894676
O     -0.507791    1.797548    0.603217
C      1.747940    0.832526   -0.691579
O      1.518150    1.420605   -1.781927
O      2.902631    1.144625    0.019727
H     -1.327354   -1.262706    1.538041
H     -2.352169    0.135560    1.014112
H     -1.621481   -2.077055   -0.601233
H     -2.163864   -0.474805   -1.228497
H      0.346517   -1.633575   -1.513773
H      1.330243   -0.979816    0.359887
H      0.258810    0.409072    1.912663
H     -0.922992    1.827967   -0.298878
H      3.102927    0.706730    0.910967
