45

C      3.230601    3.284917    1.635173
O      3.860066    2.026956    1.856897
C      3.518640    0.842726    1.187126
C      2.516992    0.797703    0.198683
C      2.196862   -0.412039   -0.423861
C      2.891707   -1.585015   -0.093148
C      3.897753   -1.539720    0.883724
C      4.202410   -0.332947    1.521337
N      2.584623   -2.798873   -0.799262
C      1.484760   -2.822591   -1.720523
O      1.279472   -3.839596   -2.435835
C      0.525763   -1.666181   -1.768536
O      1.190868   -0.451955   -1.394572
O     -0.540748   -1.944186   -0.879897
C     -1.495431   -0.897161   -0.876239
C     -2.853841   -1.488692   -0.466241
C     -3.898609   -0.358860   -0.368176
C     -3.376319    0.791102    0.513089
C     -1.959185    1.202561    0.040776
O     -1.094125    0.079265    0.071575
C     -1.356010    2.286696    0.944922
O     -2.016935    3.507247    0.754753
O     -4.263241    1.876978    0.410735
O     -5.124020   -0.845720    0.120871
O     -3.256028   -2.434613   -1.423024
O      3.326206   -3.918661   -0.607781
H      3.377086    3.604862    0.581937
H      3.688843    4.042494    2.303362
H      2.146492    3.215449    1.866323
H      1.975568    1.688656   -0.087075
H      4.447518   -2.432505    1.152074
H      4.977482   -0.309686    2.276950
H      0.148153   -1.568060   -2.811440
H     -1.607889   -0.445231   -1.894819
H     -2.734371   -1.978520    0.529799
H     -4.077685    0.039215   -1.392450
H     -3.313079    0.426674    1.567824
H     -2.010409    1.622841   -0.991791
H     -0.281337    2.414860    0.687246
H     -1.423561    1.975530    2.011892
H     -1.590234    4.151444    1.377524
H     -4.346134    2.275552    1.316189
H     -4.962230   -1.213212    1.029131
H     -3.940561   -3.007950   -0.989258
H      4.054114   -3.861753   -1.278844
