43

C     -6.927838    2.406288    0.828585
O     -7.069714    1.297624   -0.053903
C     -6.009810    0.489002   -0.495247
C     -6.289273   -0.578798   -1.366356
C     -5.253278   -1.395705   -1.826161
C     -3.936948   -1.166308   -1.422553
C     -3.637074   -0.112680   -0.538894
C     -4.678652    0.717357   -0.091967
C     -2.252371    0.180069   -0.092629
C     -1.267575   -0.729853   -0.081617
C      0.098576   -0.406016    0.373040
O      0.387802    0.765997    0.740657
N      1.100215   -1.433373    0.394461
C      2.484247   -1.174824    0.788910
C      3.243487   -0.457446   -0.335307
C      4.655987   -0.144325    0.108958
C      4.993002    1.154193    0.528012
C      6.290241    1.442309    0.963077
C      7.261523    0.436870    0.995979
C      6.929571   -0.863667    0.593716
C      5.633682   -1.154689    0.157229
O      8.549940    0.739062    1.430947
O      3.260668   -1.269602   -1.481456
O     -7.592066   -0.841748   -1.789722
H     -6.266414    3.174105    0.374157
H     -6.511917    2.068979    1.801684
H     -7.925446    2.857832    1.006325
H     -5.469683   -2.209781   -2.506535
H     -3.160431   -1.801424   -1.825734
H     -4.446555    1.535318    0.577433
H     -2.050843    1.176661    0.283926
H     -1.460144   -1.748245   -0.389479
H      0.826238   -2.415780    0.165654
H      2.500181   -0.564623    1.718721
H      2.983819   -2.143538    1.011691
H      2.706455    0.490628   -0.571611
H      4.252276    1.944423    0.518481
H      6.539518    2.447062    1.279781
H      7.673459   -1.649702    0.621653
H      5.392342   -2.166649   -0.143165
H      9.274605    0.031521    1.472275
H      3.549409   -0.692269   -2.236199
H     -8.381213   -0.283173   -1.486818
