40

C     -4.028888    1.117217   -0.440266
C     -3.780747   -0.003141    0.587624
C     -2.913725    0.490897    1.761492
C     -1.484202    0.833959    1.315937
C     -0.873255   -0.191760    0.372928
C     -1.729365   -1.138708   -0.241847
O     -3.116600   -1.091087   -0.051632
C     -1.208337   -2.155211   -1.043851
C      0.163387   -2.230849   -1.272354
C      1.026026   -1.277185   -0.734664
C      0.527798   -0.224173    0.075353
C      1.467106    0.742843    0.527602
O      1.088517    1.752505    1.179303
C      2.838521    0.590447    0.221580
C      3.835645    1.497420    0.663437
C      5.177761    1.281842    0.316966
C      5.544080    0.179320   -0.461656
C      4.567400   -0.714894   -0.900021
C      3.224321   -0.516735   -0.566031
O      2.320277   -1.378350   -1.006208
O      6.876823   -0.035936   -0.805702
O      3.506107    2.606108    1.444545
O     -2.068698   -3.092421   -1.613980
C     -5.129933   -0.507565    1.119601
H     -3.078944    1.441900   -0.913483
H     -4.697176    0.754504   -1.250448
H     -4.504716    1.996300    0.045154
H     -2.853104   -0.310162    2.532150
H     -3.376322    1.382049    2.240299
H     -0.876427    0.896647    2.243470
H     -1.482441    1.829430    0.822548
H      0.562644   -3.025602   -1.890805
H      5.938715    1.973992    0.655323
H      4.852769   -1.566899   -1.504957
H      7.610557    0.594464   -0.503802
H      4.209892    3.260169    1.766889
H     -1.723258   -3.842532   -2.201322
H     -5.757105   -0.888698    0.285168
H     -5.679804    0.309957    1.634175
H     -4.975300   -1.340059    1.839229
