17

C     -2.261248    0.518735    0.104900
C     -1.064661   -0.175385    0.678579
O     -1.224902   -1.065194    1.557671
N      0.248578    0.137470    0.196917
C      1.434040   -0.536665    0.723449
C      2.670434   -0.030969    0.050468
O      3.284251    0.963218    0.522111
O      3.114222   -0.630259   -1.123962
N     -2.694385   -0.161770   -1.110166
H     -3.087551    0.508228    0.849122
H     -2.013055    1.580146   -0.118230
H      0.347962    0.863631   -0.549468
H      1.346325   -1.630617    0.549689
H      1.507615   -0.358629    1.818236
H      3.939806   -0.288789   -1.601466
H     -3.571789    0.302705   -1.438746
H     -1.975641    0.004144   -1.852263
