46

C      6.159522    0.529714   -0.042216
O      5.405186   -0.100381   -1.072526
C      4.004963   -0.200088   -1.085429
C      3.392841   -0.854634   -2.162146
C      1.999588   -0.980258   -2.206922
C      1.210335   -0.454137   -1.183199
C      1.802792    0.216207   -0.098656
C      3.204465    0.331741   -0.055348
C      0.968498    0.770292    1.045560
C      0.448974   -0.324519    2.017582
O     -0.673561   -1.005540    1.454406
C     -1.670360   -0.303109    0.772017
C     -2.912671   -0.890810    0.520949
C     -3.907943   -0.154032   -0.156780
C     -3.647453    1.159139   -0.576736
C     -2.386830    1.743193   -0.337776
C     -1.401855    0.999531    0.326515
O     -0.127218    1.543308    0.536555
O     -2.074141    3.047413   -0.751007
C     -2.972270    3.911230   -1.439718
C     -5.144559   -0.764430   -0.390435
C     -5.357348   -2.071123    0.047417
C     -4.324427   -2.739630    0.712874
O     -4.496910   -3.919392    1.116367
O     -3.157722   -2.135824    0.923499
C      1.526752   -1.336648    2.432633
O      1.030493   -2.199994    3.419478
O      4.178932   -1.381521   -3.185614
H      7.238628    0.460881   -0.289412
H      5.983732    0.017619    0.927406
H      5.880252    1.601788    0.034496
H      1.525921   -1.490284   -3.036172
H      0.139981   -0.577195   -1.246993
H      3.665904    0.830865    0.785983
H      1.600323    1.467140    1.639191
H      0.099389    0.196608    2.937002
H     -4.421073    1.714112   -1.091475
H     -3.270760    3.457788   -2.408484
H     -2.463994    4.876329   -1.641102
H     -3.869657    4.105587   -0.815117
H     -5.937704   -0.236645   -0.906317
H     -6.309845   -2.556151   -0.127206
H      2.430956   -0.804112    2.806989
H      1.827410   -1.947995    1.555619
H      1.035384   -1.690756    4.271787
H      3.767080   -1.861278   -3.977537
