33

C     -3.021646    1.819715    0.844732
C     -2.639148    0.678484    1.782178
C     -1.659337   -0.196583    0.999839
N     -1.171137    0.646064   -0.083484
C     -1.917771    1.888549   -0.201022
C     -0.025368    0.357935   -0.909878
O      0.263527    1.143424   -1.853362
C      0.878398   -0.829859   -0.645009
C      1.999517   -0.471926    0.362173
C      2.949807    0.662940   -0.076348
C      3.827937    0.266070   -1.228423
O      3.684423    0.825292   -2.349664
O      4.801819   -0.716943   -1.069372
N      1.444850   -1.340735   -1.893881
C     -2.346570   -1.416665    0.451956
O     -3.172845   -1.313498   -0.495686
O     -2.089603   -2.664367    1.014218
H     -3.986225    1.582470    0.340494
H     -3.125894    2.779222    1.393801
H     -2.123636    1.097105    2.672477
H     -3.538224    0.123984    2.128019
H     -0.821122   -0.498395    1.664645
H     -2.360076    1.971926   -1.217525
H     -1.244199    2.750303   -0.010843
H      0.277063   -1.646709   -0.190018
H      2.592446   -1.386256    0.586770
H      1.527132   -0.164841    1.322129
H      3.605507    0.922291    0.782461
H      2.373379    1.580727   -0.325428
H      4.963283   -1.158968   -0.170597
H      1.913907   -2.254864   -1.702349
H      0.674404   -1.535315   -2.570437
H     -2.534598   -3.500576    0.647434
