29

C      3.884877   -0.367900    0.249112
C      2.406895   -0.118368    0.123689
C      1.683569    0.107253    1.236423
C      0.209059    0.419052    1.207765
C     -0.515144   -0.105046   -0.066900
C      0.336756    0.328772   -1.286174
C      1.753854   -0.258617   -1.231904
C     -1.966501    0.499731   -0.181403
C     -2.762432   -0.087968   -1.364181
C     -2.802505    0.340105    1.105136
O     -0.571854   -1.515089   -0.051220
H      4.334708   -0.602339   -0.738873
H      4.384121    0.535607    0.658462
H      4.067504   -1.226639    0.929524
H      2.189276    0.170421    2.196567
H     -0.242722   -0.022417    2.121162
H      0.096066    1.523031    1.275670
H      0.405042    1.439028   -1.324260
H     -0.121416   -0.014263   -2.235687
H      2.377842    0.250601   -1.997900
H      1.714930   -1.338659   -1.491709
H     -1.873375    1.594302   -0.361857
H     -3.798527    0.313275   -1.371458
H     -2.312128    0.197167   -2.335341
H     -2.818472   -1.194885   -1.294907
H     -2.918564   -0.728141    1.381702
H     -2.346653    0.894776    1.950357
H     -3.816446    0.770595    0.959715
H     -0.977762   -1.803385    0.806178
