42

C      1.479426    1.101961    2.504317
C      1.362844    0.544314    1.113875
C      0.153509    0.562984    0.386074
C     -1.024677    1.114894    0.931915
C     -2.217577    1.119906    0.209253
C     -2.235117    0.602708   -1.090862
C     -1.082039    0.053073   -1.650904
C      0.129391    0.013113   -0.925461
C      1.318046   -0.547378   -1.467613
C      2.499619   -0.532052   -0.693598
N      2.472922    0.006531    0.551912
C      3.787079   -1.091639   -1.187339
O      3.862238   -1.605007   -2.336939
N      4.960557   -1.053242   -0.359166
C      6.231630   -1.613085   -0.817637
C      7.292069   -1.437406    0.222575
O      7.418686   -2.287415    1.144010
O      8.101356   -0.306355    0.202673
O      1.361412   -1.120645   -2.744762
O     -3.357134    1.692221    0.793896
C     -4.680605    1.290140    0.560807
C     -5.011811   -0.042992    0.253844
C     -6.346269   -0.406463    0.048034
C     -7.358063    0.551169    0.158046
C     -7.037120    1.872183    0.480955
C     -5.703505    2.238453    0.687017
H      0.793097    0.560675    3.188867
H      2.515501    0.983072    2.887439
H      1.233466    2.184741    2.501395
H     -1.036624    1.541266    1.926079
H     -3.139568    0.642384   -1.683948
H     -1.169132   -0.320312   -2.657445
H      4.906637   -0.617382    0.589833
H      6.104089   -2.695266   -1.036659
H      6.547920   -1.100089   -1.750911
H      8.809909   -0.162096    0.911753
H      0.573615   -1.221677   -3.366521
H     -4.244305   -0.802997    0.193580
H     -6.596794   -1.432146   -0.189518
H     -8.390590    0.268218    0.000289
H     -7.821517    2.612443    0.571997
H     -5.462572    3.263282    0.938848
