22

C      1.966794   -1.487393   -0.096952
C      1.307192   -0.159993    0.289793
C      2.246862    1.018088    0.014503
C      0.003255    0.019010   -0.457554
O      0.012395    0.072382   -1.680307
C     -1.311804    0.133065    0.283008
C     -2.246492   -1.015940   -0.107867
C     -1.966428    1.489541    0.003588
H      2.222403   -1.502162   -1.178494
H      1.277848   -2.331615    0.120857
H      2.896888   -1.637514    0.491799
H      1.114990   -0.187205    1.384502
H      2.510033    1.070955   -1.064030
H      3.181355    0.907323    0.605005
H      1.758798    1.970945    0.312252
H     -1.135974    0.064670    1.378671
H     -2.493505   -0.974467   -1.190712
H     -3.189765   -0.956437    0.476029
H     -1.762303   -1.991432    0.112980
H     -2.205881    1.598651   -1.076248
H     -1.281360    2.311128    0.304377
H     -2.905301    1.588400    0.589236
