42

C     -3.679032    1.961087   -2.989934
O     -2.690842    1.109743   -2.428731
C     -2.808699    0.614087   -1.128142
C     -1.870663   -0.195679   -0.618267
C     -0.683054   -0.555943   -1.425611
C     -0.634865   -1.825489   -2.022280
C      0.474465   -2.210004   -2.777734
C      1.545832   -1.332339   -2.943059
C      1.515084   -0.068463   -2.349566
C      0.407851    0.335094   -1.583021
C      0.422007    1.697023   -0.924172
O      0.255760    1.581222    0.488756
C      1.194531    0.969609    1.327037
C      0.903283    0.811875    2.684185
C      1.835848    0.190234    3.515857
C      3.046529   -0.265308    2.987822
C      3.306337   -0.099419    1.619742
N      2.380185    0.514667    0.832537
C      4.600128   -0.574203    1.024694
F      4.798122   -1.908075    1.335554
F      5.645961    0.172494    1.534436
F      4.578520   -0.436500   -0.352778
C     -1.999169   -0.738376    0.752333
O     -1.129251   -1.541569    1.189482
O     -3.066291   -0.348703    1.569817
C     -3.212282   -0.808072    2.907717
H     -4.667168    1.451707   -2.987554
H     -3.400003    2.201532   -4.037129
H     -3.743401    2.904386   -2.407691
H     -3.675478    0.888606   -0.537235
H     -1.458006   -2.518618   -1.899472
H      0.503811   -3.190629   -3.235141
H      2.405304   -1.634184   -3.527630
H      2.361249    0.592678   -2.483053
H     -0.409310    2.306628   -1.334154
H      1.365263    2.246536   -1.138205
H     -0.038054    1.163500    3.087325
H      1.620520    0.061150    4.568382
H      3.771122   -0.744984    3.634567
H     -3.327128   -1.912868    2.919138
H     -2.326526   -0.516798    3.511625
H     -4.118490   -0.347633    3.352554
