35

C     -0.828947    0.612282    1.274196
C     -1.315130    0.199699   -0.089323
C     -2.366388   -0.707038   -0.281608
S     -2.629643   -0.864864   -1.933268
C     -1.385628    0.176749   -2.356130
N     -0.748910    0.651890   -1.256790
C      0.379497    1.592581   -1.355204
C      1.643736    1.018293   -0.750036
C      2.198095    1.617406    0.391858
N      3.300708    1.089001    0.979413
C      3.905460   -0.012594    0.468430
N      3.401326   -0.605099   -0.643942
C      2.301709   -0.116269   -1.276837
N      1.861284   -0.760677   -2.475334
C      5.090808   -0.601860    1.157091
C     -3.205956   -1.377272    0.767036
C     -4.391196   -0.493367    1.159915
O     -5.145503   -1.113746    2.165047
H     -0.566009    1.688686    1.281086
H     -1.610929    0.471814    2.046532
H      0.057985    0.006000    1.551120
H     -1.125212    0.439567   -3.373330
H      0.582342    1.855948   -2.416261
H      0.096765    2.547032   -0.860872
H      1.744881    2.497879    0.828261
H      1.164790   -0.327324   -3.116390
H      2.322209   -1.644111   -2.787258
H      5.673987    0.194990    1.665197
H      5.748972   -1.109048    0.420320
H      4.749662   -1.341296    1.911061
H     -3.585446   -2.341077    0.364523
H     -2.589901   -1.611596    1.660874
H     -4.022046    0.479577    1.547784
H     -5.029806   -0.286434    0.270433
H     -5.677567   -1.825721    1.722472
