40

C      0.667256   -2.072877   -1.503661
C      0.607082   -0.818239   -0.670853
C      1.580262   -0.486538    0.283539
S      1.159908    1.006772    0.944615
C     -0.227014    1.175513    0.021234
N     -0.410447    0.097898   -0.782968
C     -1.524055    0.003446   -1.742736
C     -2.828545    0.474265   -1.136840
C     -3.402013    1.677274   -1.572599
N     -4.565018    2.118718   -1.030406
C     -5.189628    1.418863   -0.049454
N     -4.660083    0.246987    0.387220
C     -3.497970   -0.242706   -0.120808
N     -2.988358   -1.476143    0.396365
C     -6.486876    1.905308    0.504582
C      2.791211   -1.315477    0.642693
C      3.656793   -0.713591    1.757693
O      4.234343    0.506156    1.335025
P      5.871455    0.260284    0.918485
O      6.427770    1.538217    0.332714
O      6.756733   -0.148266    2.302357
O      6.008294   -0.980586   -0.224901
H      0.549351   -1.816223   -2.577030
H      1.634637   -2.602157   -1.393019
H     -0.144488   -2.764346   -1.197629
H     -0.888907    2.030963    0.058427
H     -1.267519    0.602761   -2.643033
H     -1.670405   -1.038934   -2.092784
H     -2.925887    2.266594   -2.345345
H     -3.517712   -1.985258    1.138163
H     -2.094645   -1.896583    0.064072
H     -6.507745    3.015527    0.509577
H     -6.619965    1.542619    1.545867
H     -7.320996    1.527196   -0.122286
H      3.414006   -1.454352   -0.265431
H      2.442117   -2.316891    0.974411
H      3.014611   -0.507678    2.640510
H      4.394040   -1.475273    2.105465
H      6.545357    0.564713    2.956629
H      6.983051   -1.105127   -0.347859
