50

C     -5.428315   -0.126333   -1.673301
C     -4.005278   -0.231248   -1.212333
C     -3.142937   -1.179538   -1.647049
C     -3.574017   -2.249704   -2.629306
C     -1.755964   -1.196667   -1.110699
O     -0.952427   -2.116988   -1.427434
O     -1.353205   -0.177307   -0.236647
C     -0.015731    0.066079    0.207918
C      0.390017   -0.957892    1.312325
C      1.681106   -1.792848    1.022766
C      2.914372   -1.033036    1.501022
C      3.616038   -0.106344    0.817459
C      3.401536    0.266927   -0.592249
O      3.813717   -0.547761   -1.472553
C      2.971988    1.645927   -1.008350
C      2.218867    2.488550   -0.254004
C      1.435894    2.111828    0.982169
C      0.031528    1.552735    0.646174
C     -0.771803    1.976854    1.851967
C     -1.895846    1.443914    2.332426
C     -0.054712    3.101538    2.419906
O     -0.460425    3.843421    3.359119
O      1.177914    3.244893    1.809248
C      3.470613    2.158565   -2.342440
C      1.594803   -3.112810    1.828936
O      1.765514   -2.093725   -0.354488
H     -5.927898    0.705391   -1.127488
H     -5.974966   -1.071242   -1.459287
H     -5.466343    0.097412   -2.762812
H     -3.675151    0.511487   -0.486355
H     -4.093706   -3.068350   -2.089144
H     -4.246845   -1.841026   -3.410733
H     -2.701656   -2.677080   -3.172975
H      0.651014   -0.014850   -0.676312
H      0.485822   -0.457078    2.299168
H     -0.463698   -1.659927    1.443053
H      3.171193   -1.145502    2.550392
H      4.360174    0.472442    1.349975
H      2.000889    3.479136   -0.652776
H      1.970646    1.415517    1.636786
H     -0.372327    2.143990   -0.207813
H     -2.349071    0.575528    1.879056
H     -2.361458    1.860129    3.218770
H      2.795573    2.944618   -2.761617
H      3.498253    1.338919   -3.094522
H      4.488223    2.596656   -2.214396
H      0.767027   -3.747088    1.443550
H      2.539042   -3.692005    1.736642
H      1.414384   -2.912060    2.909847
H      2.417633   -2.834046   -0.481591
