31

C      2.882371    0.584356    0.866986
C      3.024263   -0.059017   -0.520434
C      1.794599   -0.922645   -0.893707
C      0.539498   -0.083103   -0.980013
O      0.406677    0.747625   -1.920401
N     -0.479994   -0.203903    0.023445
C     -1.686990    0.631566    0.010861
C     -2.820281    0.007107    0.855976
C     -3.279785   -1.332323    0.267739
O     -2.393844   -0.175485    2.182631
C     -1.359683    2.011076    0.510029
O     -0.663978    2.164597    1.550248
O     -1.856086    3.123939   -0.161421
N      2.034873   -1.620712   -2.159840
O      4.201599   -0.826298   -0.573232
H      2.710275   -0.191986    1.642764
H      2.035266    1.301827    0.879106
H      3.809754    1.141116    1.118731
H      3.125461    0.760380   -1.265812
H      1.659824   -1.695111   -0.104138
H     -0.316655   -0.858559    0.821664
H     -2.054976    0.719134   -1.036128
H     -3.690646    0.705438    0.834988
H     -2.458048   -2.078766    0.296719
H     -4.135496   -1.727284    0.855273
H     -3.611857   -1.198276   -0.783781
H     -3.211432   -0.286250    2.735090
H     -1.655184    4.060948    0.166875
H      1.203398   -2.217270   -2.378340
H      2.134844   -0.923251   -2.933575
H      4.112236   -1.558869    0.091696
