20

C      0.305996    1.898370    0.576003
C     -0.481023    0.667279    0.211032
C     -1.849016    0.621841    0.534534
C     -2.630243   -0.475937    0.170444
C     -2.057781   -1.542773   -0.519886
C     -0.697929   -1.524107   -0.833689
C      0.110996   -0.438036   -0.455878
C      1.553603   -0.497288   -0.786575
O      1.906462   -0.811913   -1.954918
C      2.610350   -0.232128    0.240763
H      0.993684    2.178248   -0.249079
H      0.884661    1.714110    1.504366
H     -0.364745    2.766538    0.751072
H     -2.317677    1.445392    1.059334
H     -3.683750   -0.495847    0.418120
H     -2.667272   -2.390105   -0.806508
H     -0.269520   -2.371127   -1.356175
H      2.200256   -0.354181    1.265307
H      3.444331   -0.954293    0.114772
H      3.008616    0.795957    0.116962
