35

C     -0.346490    2.340073   -1.704805
C     -0.935167    1.423366   -0.657571
C     -2.216460    1.638776   -0.289560
C     -2.923490    0.851806    0.789085
C     -1.946996    0.102639    1.712031
C     -0.840155   -0.629411    0.914930
C     -0.037853    0.433390    0.087619
C      0.930378   -0.230052   -0.871179
C      2.233688   -0.345077   -0.591317
C      3.180830   -1.007626   -1.506494
O      2.788772   -1.487420   -2.605044
C      4.623063   -1.112123   -1.129309
C      0.096951   -1.325457    1.928716
C     -1.469117   -1.719508    0.007087
O     -3.757361    1.695590    1.542099
H      0.752798    2.217749   -1.790986
H     -0.543264    3.400372   -1.437296
H     -0.807889    2.122801   -2.691011
H     -2.806236    2.376184   -0.828932
H     -3.576561    0.108486    0.285121
H     -1.473702    0.830515    2.409231
H     -2.521995   -0.620174    2.332656
H      0.541376    1.057949    0.805663
H      0.535891   -0.642446   -1.792891
H      2.617423    0.053975    0.340323
H      4.720350   -1.675891   -0.177879
H      5.049152   -0.095498   -0.997534
H      5.196704   -1.641524   -1.919661
H      0.578165   -0.581052    2.599144
H     -0.472610   -2.042282    2.559150
H      0.897689   -1.892947    1.409058
H     -2.175496   -2.352025    0.586658
H     -0.688055   -2.388688   -0.413061
H     -2.017435   -1.268473   -0.846138
H     -3.186898    2.404003    1.942097
