19

C     -2.148123   -1.483649    0.144556
C     -2.833293   -0.299054   -0.200796
C     -2.124714    0.895917   -0.415110
C     -0.737782    0.866815   -0.275376
C     -0.066716   -0.283850    0.060592
C     -0.747850   -1.485276    0.279035
C      1.281159    0.040945    0.112993
C      1.347724    1.398239   -0.201112
N      0.112768    1.893872   -0.436428
C      2.424274   -0.838799    0.430244
O      2.241980   -2.054457    0.699532
C      3.766703   -0.321089    0.436950
N      4.846268    0.095633    0.442253
H     -2.704211   -2.397759    0.307145
H     -3.910771   -0.310485   -0.301297
H     -2.641413    1.809258   -0.680311
H     -0.229922   -2.395980    0.543625
H      2.251058    1.992069   -0.254799
H     -0.127141    2.877651   -0.691695
