18

C      1.585099   -0.946461   -1.028376
C      1.272662    0.139888   -0.048294
C      0.117071    0.175867    0.736188
S      0.181369    1.561945    1.686830
C      1.672845    2.048018    1.083198
N      2.130059    1.177010    0.156927
C     -1.032435   -0.790297    0.712282
C     -2.202019   -0.248806   -0.113216
O     -1.856778   -0.160302   -1.469690
H      1.713240   -1.909255   -0.491145
H      0.761256   -1.041473   -1.765557
H      2.523857   -0.714791   -1.574393
H      2.208839    2.938093    1.382709
H     -1.375952   -0.958864    1.755241
H     -0.710207   -1.772373    0.305789
H     -3.058457   -0.948875   -0.015914
H     -2.534295    0.740136    0.279343
H     -1.396154    0.710539   -1.591921
