19

C      2.806377    0.188853    0.248625
O      1.485949    0.707719    0.124423
C      0.322197   -0.073919    0.029682
C      0.386755   -1.482937    0.052201
C     -0.774792   -2.249448   -0.042524
C     -2.014689   -1.626958   -0.160763
C     -2.099348   -0.234552   -0.184880
C     -0.939653    0.560878   -0.090665
C     -1.071691    2.042239   -0.120076
O     -2.209725    2.574915   -0.228143
O      0.048011    2.864658   -0.029754
H      3.057250   -0.433399   -0.636253
H      3.523368    1.033430    0.302679
H      2.895037   -0.411829    1.178391
H      1.333021   -1.998040    0.142915
H     -0.712766   -3.329986   -0.024135
H     -2.914116   -2.224769   -0.234061
H     -3.077936    0.219741   -0.277760
H     -0.043248    3.873405   -0.049903
