48

C     -4.835110    1.610828    1.618415
C     -3.633617    1.381582    0.738816
C     -3.796962    0.681638   -0.405129
C     -2.699596    0.393979   -1.401605
C     -1.728810   -0.641989   -0.883946
C     -2.147740   -1.970743   -0.651598
C     -1.216186   -2.907195   -0.136682
C      0.101975   -2.510020    0.125393
C      0.522101   -1.199160   -0.130197
C     -0.399181   -0.271735   -0.632258
C      1.930174   -0.772091    0.206546
C      1.961653   -0.025512    1.552376
C      3.319868    0.573894    1.783026
O      3.755953    0.700477    2.958801
C      4.094073    1.079060    0.631300
C      3.610796    0.822830   -0.663547
O      2.459308    0.046919   -0.841314
C      4.275925    1.347091   -1.776222
C      5.443883    2.103966   -1.606029
C      5.939401    2.338357   -0.318644
C      5.267866    1.831465    0.798336
O      6.118400    2.625937   -2.707436
O     -1.583850   -4.226279    0.122498
O     -3.487393   -2.292839   -0.945656
C     -4.117948   -3.552908   -0.749107
C     -2.293801    1.940678    1.153486
H     -4.573272    2.183047    2.532776
H     -5.263186    0.635395    1.932011
H     -5.606137    2.181954    1.059367
H     -4.789152    0.310574   -0.652552
H     -3.159959    0.005626   -2.334849
H     -2.187688    1.339225   -1.681607
H      0.801784   -3.229495    0.533446
H     -0.083740    0.750121   -0.807239
H      2.582927   -1.669805    0.293349
H      1.713167   -0.730632    2.375405
H      1.213714    0.797047    1.553041
H      3.891660    1.156150   -2.770277
H      6.841321    2.921743   -0.183486
H      5.656405    2.038271    1.787614
H      5.779691    2.483518   -3.652061
H     -0.925889   -4.903354    0.491120
H     -5.176468   -3.478149   -1.072047
H     -3.623520   -4.332749   -1.364283
H     -4.102163   -3.824252    0.326494
H     -1.606525    1.111799    1.415831
H     -1.857901    2.548993    0.334262
H     -2.386249    2.596742    2.044062
