45

C     -2.605611    3.592880   -1.927753
O     -3.302217    2.521897   -1.298623
C     -2.685667    1.415057   -0.691892
C     -1.287824    1.271844   -0.658805
C     -0.698328    0.153799   -0.060662
C     -1.515556   -0.810162    0.544923
C     -2.918776   -0.690725    0.521889
C     -3.507255    0.435956   -0.108963
O     -4.897199    0.648536   -0.190523
C     -5.918041   -0.204131    0.315955
O     -3.733080   -1.667718    1.116687
C     -3.259460   -2.846650    1.760378
C      0.778218    0.039959   -0.024506
C      1.439448   -1.168431   -0.317205
C      2.851807   -1.195771   -0.234755
O      3.473999   -2.238095   -0.561935
C      3.557582   -0.034088    0.163544
C      4.973996    0.033006    0.331044
C      5.582505    1.268174    0.585730
C      4.818621    2.426032    0.750227
C      3.431085    2.357928    0.654383
C      2.799270    1.146592    0.362205
O      1.477200    1.128457    0.270248
O      5.429927    3.648524    1.019920
O      5.817119   -1.081274    0.288639
O      0.659405   -2.274571   -0.712091
C      1.126505   -3.593491   -0.974354
H     -2.003238    3.209419   -2.778210
H     -1.949288    4.105530   -1.193134
H     -3.342351    4.325185   -2.316736
H     -0.650911    2.021633   -1.109377
H     -1.050634   -1.642898    1.053835
H     -5.864248   -1.200534   -0.170884
H     -6.906020    0.242176    0.081687
H     -5.832317   -0.293686    1.419244
H     -4.127869   -3.436375    2.118636
H     -2.680438   -3.467169    1.044066
H     -2.629119   -2.578127    2.634202
H      6.659406    1.319679    0.689813
H      2.839502    3.254392    0.795251
H      6.436788    3.731768    1.098426
H      5.514078   -2.033523    0.429330
H      1.790167   -3.596624   -1.864226
H      1.653474   -3.999110   -0.085076
H      0.255343   -4.245271   -1.190263
