39

C     -4.041071    1.603477   -0.356025
C     -4.211908    0.078185   -0.283562
C     -5.489680   -0.264863    0.493487
C     -2.993261   -0.609601    0.372836
C     -1.724623   -0.524330   -0.490633
C     -0.578349   -1.332971    0.135209
C      0.670017   -1.395647   -0.763155
C      1.322565   -0.032908   -1.071097
C      1.728702    0.792265    0.166642
C      2.719685    0.081157    1.104608
C      3.994291   -0.308485    0.410005
C      4.876544    0.609220   -0.000225
C      6.134481    0.246981   -0.678828
O      6.423484   -0.959205   -0.901079
O      7.019632    1.241557   -1.083856
H     -4.965396    2.075514   -0.752466
H     -3.830374    2.023843    0.650750
H     -3.214025    1.873970   -1.043916
H     -4.333262   -0.311314   -1.318805
H     -5.648032   -1.364390    0.508117
H     -5.421762    0.102207    1.540353
H     -6.373581    0.199905    0.006536
H     -2.795726   -0.157479    1.370167
H     -3.234423   -1.684219    0.531761
H     -1.412694    0.536480   -0.574702
H     -1.941307   -0.918124   -1.507780
H     -0.923383   -2.376954    0.301597
H     -0.317124   -0.915948    1.130703
H      0.392186   -1.875373   -1.726924
H      1.420055   -2.062989   -0.287994
H      0.631347    0.574438   -1.692892
H      2.222154   -0.210424   -1.699098
H      0.822866    1.074910    0.743080
H      2.182503    1.744867   -0.182802
H      2.959991    0.753516    1.956656
H      2.245197   -0.824659    1.536567
H      4.194388   -1.363607    0.266274
H      4.669876    1.659387    0.167502
H      6.820015    2.221610   -0.922481
