40

C     -3.044330    2.512807   -1.876467
C     -2.215971    2.771427   -0.618890
N     -2.689565    1.957596    0.511701
C     -4.028487    2.201450    1.068081
C     -4.908141    0.968783    0.892033
C     -1.765349    1.126666    1.246402
O     -1.794933    1.137941    2.508173
C     -0.798489    0.238242    0.556652
C      0.368800   -0.076419    1.152751
C      1.397060   -0.974240    0.576301
C      1.063515   -2.236335    0.064137
C      2.051470   -3.093613   -0.453173
C      3.400452   -2.671214   -0.440228
C      3.746937   -1.419277    0.104429
C      2.739357   -0.584344    0.619419
O      5.098833   -1.038095    0.115846
C      5.589190    0.195271    0.631691
O      4.393951   -3.494397   -0.974115
N      1.672347   -4.383085   -0.980859
O      0.469875   -4.655517   -1.178791
O      2.613334   -5.351966   -1.242859
C     -1.131304   -0.269247   -0.755278
N     -1.393943   -0.681008   -1.804553
H     -2.581145    3.034877   -2.740071
H     -3.089118    1.427302   -2.097719
H     -4.078001    2.896584   -1.751255
H     -1.149403    2.554986   -0.844245
H     -2.278739    3.848157   -0.350833
H     -4.515786    3.064371    0.565064
H     -3.955921    2.458660    2.146807
H     -5.921178    1.171378    1.298760
H     -4.998065    0.716052   -0.185476
H     -4.472271    0.103561    1.434712
H      0.624000    0.407481    2.088919
H      0.032482   -2.564874    0.094702
H      2.989705    0.379614    1.043085
H      6.691269    0.226138    0.509818
H      5.349204    0.279874    1.712636
H      5.146174    1.046159    0.072400
H      5.372185   -3.231746   -0.986485
