48

C      5.288344    0.077877    0.080564
C      4.253964    0.882927   -0.717242
C      4.216835    0.428855   -2.183209
C      2.854335    0.864458   -0.060000
C      2.246480   -0.539313    0.107792
C      0.836796   -0.441126    0.634720
C     -0.264148   -0.306949   -0.143857
C     -0.154942   -0.328281   -1.655123
C     -1.630051   -0.140077    0.524501
C     -2.605380   -1.297697    0.151398
C     -4.065532   -1.072985    0.653866
C     -4.248087    0.194757    1.498124
C     -3.614373    1.369838    0.807966
O     -4.216006    2.430896    0.738705
C     -2.236085    1.248101    0.205846
O     -1.404345    2.249958    0.772005
C     -0.992985    3.176248   -0.208482
C     -2.063222   -2.632248    0.628449
O     -1.724248   -3.470006   -0.193805
C     -1.910857   -2.949048    2.088809
H      5.284701    0.394773    1.145202
H      5.076947   -1.010872    0.024965
H      6.304754    0.256836   -0.330592
H      4.592729    1.943010   -0.714857
H      4.014172   -0.659274   -2.264414
H      3.434032    0.985954   -2.740754
H      5.196206    0.634713   -2.665501
H      2.172225    1.501079   -0.663890
H      2.925951    1.341691    0.942509
H      2.845472   -1.109155    0.849099
H      2.270034   -1.112163   -0.840197
H      0.730229   -0.439417    1.716178
H      0.206202   -1.322650   -1.991020
H      0.545112    0.456357   -2.006471
H     -1.130603   -0.142649   -2.145205
H     -1.495938   -0.168377    1.629980
H     -2.668189   -1.343040   -0.958327
H     -4.434313   -1.941776    1.242257
H     -4.739306   -0.995326   -0.228674
H     -3.774799    0.056582    2.493702
H     -5.333211    0.378493    1.657122
H     -2.367680    1.337703   -0.899553
H     -1.868717    3.689229   -0.664382
H     -0.360868    3.948272    0.275827
H     -0.379920    2.679645   -0.992199
H     -2.479464   -3.871413    2.329761
H     -2.294510   -2.124131    2.723814
H     -0.837739   -3.110275    2.322533
