13

C     -1.678923    0.231341    0.084754
C     -1.066747   -0.974076    0.439937
C      0.322712   -1.108092    0.350014
C      1.108121   -0.030766   -0.097929
C      0.487109    1.174251   -0.452109
C     -0.902476    1.304798   -0.360978
N      2.531512   -0.138634   -0.200183
O      3.136277   -1.188195    0.102049
H     -2.754155    0.333504    0.154874
H     -1.668872   -1.804708    0.784970
H      0.781420   -2.048099    0.628822
H      1.081155    2.010785   -0.798383
H     -1.377131    2.237889   -0.635839
