21

C      0.776815    0.968609    0.117531
C      0.230528   -0.198718    0.970169
C     -1.318501   -0.192300    1.078134
C     -2.045730   -0.468314   -0.254799
O     -3.434698   -0.413086   -0.070538
O     -1.740277   -1.103753    2.062584
O      0.710083   -1.441500    0.514896
C      2.272458    1.073868    0.241346
O      2.766601    1.702688    1.214822
C      3.176307    0.429359   -0.722351
O      2.725019   -0.218625   -1.703278
H      0.494805    0.844494   -0.949102
H      0.326852    1.923966    0.465532
H      0.616356   -0.055916    2.004282
H     -1.625004    0.820287    1.421208
H     -1.788169   -1.481065   -0.628758
H     -1.742109    0.268240   -1.030931
H     -3.674293    0.547697    0.002849
H     -1.504580   -2.015923    1.749057
H      0.530244   -1.501401   -0.458783
H      4.247293    0.511394   -0.590272
