30

C     -5.113887    1.063686   -0.822155
C     -3.968586    0.692310    0.062155
O     -4.142553    0.614770    1.308640
N     -2.684730    0.409306   -0.511490
C     -1.533031    0.017357    0.307194
C     -0.229415    0.155615   -0.504223
C      1.021543   -0.053041    0.363301
C      2.300367    0.145761   -0.457059
N      3.488397   -0.057393    0.371726
C      4.808599    0.071889   -0.169122
O      4.973764    0.366671   -1.383596
N      5.946443   -0.133062    0.666961
C     -1.717508   -1.393066    0.794446
O     -1.970752   -2.319934   -0.021774
O     -1.589276   -1.678547    2.150089
H     -4.824252    1.918750   -1.467948
H     -5.998005    1.355171   -0.216107
H     -5.383314    0.197466   -1.461527
H     -2.581737    0.475352   -1.550236
H     -1.470082    0.703290    1.181474
H     -0.228991   -0.573474   -1.344970
H     -0.192146    1.178258   -0.940919
H      1.013524    0.672755    1.205993
H      1.019910   -1.082700    0.782548
H      2.317974    1.177235   -0.872013
H      2.315663   -0.579488   -1.299833
H      3.385929   -0.302806    1.382922
H      5.827920   -0.377764    1.674896
H      6.910880   -0.040044    0.277712
H     -1.702648   -2.624323    2.494627
