26

C      3.109252    0.141294   -1.198452
C      2.607041   -0.754578   -0.068235
C      1.391358   -0.170156    0.672700
C      0.102116   -0.109738   -0.198310
C     -0.136799    1.322295   -0.708741
C     -1.118078   -0.631282    0.602160
C     -2.410250   -0.756541   -0.234720
C     -3.391247    0.385692    0.030398
H      3.298021    1.170127   -0.824869
H      4.060243   -0.268709   -1.598968
H      2.372556    0.172702   -2.027813
H      2.357667   -1.759420   -0.473230
H      3.433532   -0.886170    0.663630
H      1.225921   -0.816069    1.562970
H      1.648821    0.833496    1.078495
H      0.227047   -0.773319   -1.083185
H     -0.927645    1.330548   -1.486873
H      0.780948    1.737693   -1.171642
H     -0.437473    1.989935    0.126968
H     -0.870445   -1.649316    0.977150
H     -1.283959    0.004366    1.500555
H     -2.182155   -0.807817   -1.321328
H     -2.921623   -1.707432    0.031933
H     -2.937228    1.367497   -0.212051
H     -4.295557    0.250915   -0.599663
H     -3.702063    0.383987    1.096857
