40

C      4.285224    0.849052   -0.487946
C      3.281703   -0.186583    0.028441
C      1.891388    0.440487    0.312515
C      1.369439    0.023507    1.698808
C     -0.061215    0.531287    1.953504
C     -1.035123    0.398700    0.725395
C     -2.395314   -0.201235    1.220086
C     -3.388279   -0.454609    0.066257
C     -2.790307   -1.367144   -1.007584
C     -1.442809   -0.853038   -1.456254
C     -1.170951   -0.773513   -2.773070
C     -0.424555   -0.560956   -0.352154
C      0.961326   -0.053264   -0.837546
O      1.673530   -1.099787   -1.476665
C      2.970519   -1.179305   -1.025009
O      3.793292   -2.024523   -1.465290
O     -2.985509    0.651575    2.169648
C     -1.267085    1.813922    0.117265
H      3.895779    1.359451   -1.395756
H      4.477051    1.610072    0.297936
H      5.248800    0.355534   -0.737341
H      3.707142   -0.701279    0.918647
H      1.948450    1.552693    0.293231
H      2.042710    0.428753    2.485686
H      1.385821   -1.085441    1.789957
H     -0.001518    1.589239    2.293481
H     -0.446480   -0.032713    2.831450
H     -2.183066   -1.187112    1.700567
H     -3.707701    0.505949   -0.391030
H     -4.302071   -0.940285    0.472510
H     -3.508466   -1.435436   -1.854252
H     -2.661000   -2.390132   -0.592498
H     -0.209561   -0.456500   -3.155427
H     -1.923458   -1.033343   -3.511247
H     -0.246122   -1.543627    0.141027
H      0.836850    0.784572   -1.558128
H     -3.652561    0.111485    2.668998
H     -0.304880    2.324890   -0.090437
H     -1.828505    1.767409   -0.838132
H     -1.832488    2.461248    0.820356
