13

C     -1.738602    0.100880    0.235175
C     -0.463976    0.078295   -0.601921
C      0.487850   -0.990426   -0.125799
C      1.635097   -0.459391    0.271829
C      1.515468    0.966830    0.093497
O      2.405075    1.814724    0.363598
O      0.272988    1.283770   -0.419342
H     -2.395665    0.927327   -0.108491
H     -1.496981    0.257819    1.308524
H     -2.285473   -0.859229    0.121266
H     -0.700828   -0.066309   -1.677835
H      0.276124   -2.051717   -0.115126
H      2.488923   -1.002573    0.654624
