13

C      2.057727    0.315989   -0.074147
C      0.568819    0.235211   -0.016392
C     -0.125536   -0.899743   -0.019919
C     -1.593000   -0.612806    0.047179
C     -1.552572    0.873026    0.086800
O     -2.563555    1.620086    0.148283
O     -0.255066    1.346616    0.047661
H      2.378699    1.378393   -0.057573
H      2.423846   -0.157436   -1.009248
H      2.496787   -0.207711    0.800811
H      0.312943   -1.888449   -0.065036
H     -2.111641   -0.976032   -0.864764
H     -2.037452   -1.027145    0.976345
