48

C     -2.618053   -2.332502   -0.966041
C     -4.096630   -2.409272   -0.653597
C     -3.135945   -1.794674    0.366139
N     -3.195633   -0.322957    0.452332
C     -4.433311    0.222219    0.661162
C     -4.652845    1.599674    0.581609
C     -3.575073    2.433602    0.259301
O     -3.768294    3.666329    0.065398
C     -2.281293    1.893280    0.142734
C     -1.189255    2.730589   -0.142308
C      0.099579    2.219408   -0.210143
C      0.339004    0.871374    0.060488
C     -0.734884    0.009483    0.370068
C     -2.082476    0.494700    0.324522
C     -0.397374   -1.296089    0.895768
N     -0.115013   -2.335597    1.320026
N      1.688975    0.383522    0.040185
C      2.205260   -0.530945   -0.976873
C      3.707490   -0.432685   -0.776349
C      3.846484   -0.179284    0.711939
C      2.719111    0.798632    0.991073
O      5.149964    0.285411    0.975486
C      6.055973   -0.776041    0.677426
C      5.909435   -1.318449   -0.779973
N      4.504705   -1.602321   -1.146720
F      1.126819    3.049945   -0.520103
C     -6.023487    2.130962    0.782140
O     -7.017679    1.453753    0.407952
O     -6.244885    3.356872    1.407202
H     -2.086494   -3.304277   -0.889950
H     -2.355605   -1.564562   -1.725019
H     -4.443835   -3.434695   -0.407007
H     -4.702717   -1.707518   -1.265624
H     -2.976469   -2.384123    1.293979
H     -5.279011   -0.427356    0.863052
H     -1.329151    3.790783   -0.315882
H      1.919108   -0.190192   -1.995406
H      1.835606   -1.562014   -0.791952
H      4.068012    0.457628   -1.347001
H      3.627764   -1.107027    1.298187
H      3.034190    1.844444    0.786642
H      2.354175    0.696609    2.035984
H      7.092112   -0.399667    0.809097
H      5.925306   -1.609494    1.404423
H      6.512991   -2.245511   -0.887191
H      6.327630   -0.570938   -1.489385
H      4.180755   -2.435570   -0.600352
H     -5.495036    3.884540    1.836261
