15

C     -0.758614    1.538849   -0.018248
C      0.603506    1.303966    0.192000
C      1.102378   -0.006942    0.183014
C      0.225804   -1.079966   -0.038229
C     -1.138136   -0.845735   -0.248826
C     -1.628993    0.467447   -0.238346
O     -1.995047   -1.922136   -0.467032
N      2.495416   -0.248156    0.397965
H     -1.139781    2.551862   -0.010582
H      1.268906    2.141150    0.361534
H      0.601524   -2.095689   -0.046993
H     -2.682283    0.657958   -0.400301
H     -2.987088   -1.785980   -0.622608
H      2.876614   -1.220541    0.393158
H      3.155795    0.543913    0.563495
