50

C      5.940138   -0.187505   -1.291186
C      6.126744    1.201047   -0.700222
C      7.576828    1.096625   -0.300002
C      7.783567   -0.164562    0.090963
C      6.469504   -0.890309   -0.051310
C      5.542428   -0.345551    1.065094
C      5.300436    1.122686    0.609327
C      3.819724    1.190889    0.387721
O      3.224455    2.216056   -0.038842
N      3.160382   -0.039487    0.659468
C      4.173452   -0.954574    1.058192
O      3.935867   -2.140626    1.410278
C      1.760526   -0.320871    0.485887
C      1.342719   -1.535578   -0.078267
C     -0.017736   -1.806568   -0.248068
C     -0.988120   -0.864526    0.134859
C     -0.566953    0.346744    0.712454
C      0.794338    0.616111    0.881422
C     -2.426548   -1.173530   -0.049430
O     -2.801621   -2.377396   -0.009669
N     -3.392761   -0.127489   -0.264167
C     -4.791481   -0.373356   -0.495599
C     -5.207626   -1.396563   -1.366545
C     -6.566431   -1.613343   -1.610852
C     -7.529787   -0.806798   -1.002177
C     -7.135466    0.230795   -0.147340
C     -5.760987    0.453951    0.103583
N     -5.386270    1.462865    0.938904
C     -6.296217    2.273550    1.541365
C     -7.661248    2.085556    1.316021
C     -8.082623    1.059588    0.468585
H      6.569191   -0.365213   -2.196039
H      4.882605   -0.436243   -1.532869
H      5.887952    2.051341   -1.373724
H      8.339280    1.862115   -0.396076
H      8.741672   -0.592818    0.365127
H      6.550570   -1.996077   -0.117130
H      6.001743   -0.407106    2.076652
H      5.625288    1.865942    1.370811
H      2.069490   -2.266519   -0.407816
H     -0.311355   -2.748348   -0.695364
H     -1.281971    1.076697    1.066148
H      1.092925    1.546746    1.346322
H     -3.085292    0.868505   -0.217423
H     -4.480998   -2.013004   -1.879128
H     -6.873302   -2.404669   -2.282608
H     -8.578624   -0.988324   -1.204548
H     -5.959277    3.064886    2.197444
H     -8.386842    2.729877    1.795381
H     -9.142285    0.914381    0.295475
