35

C     -2.218996    1.625081    0.098204
C     -2.138053    0.349733   -0.771376
C     -2.762104   -0.909920   -0.108165
C     -1.799110   -1.576246    0.896745
C     -0.384754   -1.692342    0.303953
C      0.066378   -0.333945   -0.252427
O     -0.825245    0.112958   -1.263573
O      1.355824   -0.493058   -0.814314
C      1.996670    0.758763   -0.991678
C      2.913695    1.081521    0.203530
C      3.965386   -0.015209    0.434314
O      4.775643   -0.189696   -0.697917
O      3.563555    2.307144   -0.012729
O     -0.361668   -2.651011   -0.723647
O     -1.745271   -0.842091    2.093473
O     -3.092499   -1.846521   -1.103090
O     -3.553347    2.022619    0.269570
H     -1.780331    1.460810    1.100998
H     -1.636920    2.443042   -0.384925
H     -2.757528    0.571737   -1.668180
H     -3.693038   -0.623941    0.436120
H     -2.167108   -2.604333    1.126824
H      0.325679   -1.994263    1.109812
H      0.112313    0.386142    0.596911
H      2.611615    0.702214   -1.914925
H      1.279943    1.598250   -1.156874
H      2.295356    1.151148    1.128074
H      3.459494   -0.977309    0.662951
H      4.588919    0.243471    1.320705
H      5.446880    0.541488   -0.684818
H      2.889900    3.020649    0.139760
H     -0.371703   -3.541870   -0.285399
H     -2.593899   -1.017149    2.578346
H     -3.936162   -1.536629   -1.525472
H     -3.829512    2.468760   -0.573280
