42

C     -3.822997   -1.712159    0.388204
C     -2.744690   -1.295927   -0.564665
C     -2.351668   -0.029719   -0.835425
C     -1.285053    0.128191   -1.856588
O     -0.819397    1.260432   -2.152555
C     -2.870088    1.231761   -0.118684
C     -4.406737    1.400504   -0.111089
C     -5.021418    1.222275   -1.470948
O     -6.231707    1.299723   -1.605615
C     -2.294867    1.378511    1.307336
C     -0.797481    1.335980    1.314596
O     -0.139339    2.371109    1.020620
O     -0.147696    0.133525    1.614883
C      1.266933   -0.031880    1.551658
C      1.726432   -0.156601    0.097553
C      3.211444   -0.388590    0.027840
C      3.726803   -1.694878    0.047553
C      5.108326   -1.907918    0.013928
C      5.987911   -0.817554   -0.029538
C      5.478511    0.485081   -0.036256
C      4.097394    0.700710   -0.002699
O      7.366068   -1.017496   -0.063460
H     -4.817274   -1.430912   -0.012857
H     -3.813333   -2.818025    0.486567
H     -3.665310   -1.290606    1.397553
H     -2.263066   -2.113274   -1.091044
H     -0.884049   -0.738759   -2.367315
H     -2.505365    2.121327   -0.678315
H     -4.885392    0.716776    0.616085
H     -4.648138    2.429721    0.234359
H     -4.404657    1.027516   -2.342656
H     -2.681621    0.589148    1.979803
H     -2.620115    2.351421    1.737051
H      1.532937   -0.961434    2.098984
H      1.775254    0.821125    2.053108
H      1.186350   -0.998713   -0.388019
H      1.465734    0.768047   -0.460580
H      3.059308   -2.546717    0.090089
H      5.493878   -2.919438    0.025052
H      6.153640    1.330928   -0.064151
H      3.718351    1.715294    0.000745
H      7.766186   -1.948502   -0.058804
