47

C      8.181711    0.544522    1.150154
O      7.048421    1.231209    0.632884
C      5.777342    0.652960    0.580074
O      5.593748   -0.526211    0.991569
N      4.686245    1.409268    0.043597
C      3.360711    0.870891   -0.065810
C      2.771534    0.669888   -1.327405
N      1.517974    0.152745   -1.407009
C      0.809707   -0.171456   -0.295295
N      1.356132    0.031783    0.931223
C      2.604585    0.547512    1.078136
N      3.102747    0.788907    2.397252
C     -0.546492   -0.733436   -0.403545
N     -1.302519   -1.069339    0.673534
N     -2.465425   -1.540096    0.235662
C     -2.464291   -1.490800   -1.105982
C     -1.276823   -0.994771   -1.555420
C     -1.038474   -0.836509   -2.919734
C     -2.070189   -1.208360   -3.801092
C     -3.287366   -1.714923   -3.288913
N     -3.471540   -1.849280   -1.941030
C     -3.571078   -1.932775    1.103584
C     -4.484556   -0.758838    1.331229
C     -5.623269   -0.586743    0.525983
C     -6.453262    0.523659    0.706145
C     -6.148581    1.474633    1.683140
C     -5.010806    1.319211    2.479245
C     -4.175990    0.210444    2.303764
F     -3.068084    0.084811    3.077659
N      3.475949    0.970414   -2.535627
H      8.009420    0.273560    2.213389
H      8.374445   -0.373320    0.555211
H      9.069385    1.206772    1.087184
H      4.895658    2.325261   -0.412650
H      2.532754    0.511731    3.227028
H      4.002322    1.289914    2.565617
H     -0.106820   -0.442458   -3.299798
H     -1.933600   -1.103904   -4.869528
H     -4.080689   -1.997540   -3.967768
H     -4.127277   -2.779585    0.644927
H     -3.171983   -2.300528    2.073708
H     -5.867618   -1.310476   -0.241680
H     -7.331104    0.648735    0.085475
H     -6.791514    2.334457    1.820260
H     -4.773798    2.061624    3.230448
H      4.459798    1.318267   -2.530803
H      3.012560    0.818649   -3.458990
