50

C      5.692745   -0.619039    0.407224
C      4.903046    0.663991    0.117985
C      5.463528    1.393307   -1.109802
C      3.415611    0.375322   -0.039986
C      2.975069   -0.418150   -1.024053
C      1.544002   -0.705818   -1.191071
O      1.199049   -1.415139   -2.172317
C      0.529053   -0.157388   -0.232189
C      0.971106    0.695026    0.736062
C      2.427352    0.969211    0.890690
O      2.823821    1.710850    1.830980
C      0.053271    1.313199    1.767762
C     -1.413624    1.312465    1.364984
C     -1.811358   -0.077090    0.848760
C     -0.979396   -0.467823   -0.433593
C     -1.182560   -2.002319   -0.697153
C     -2.542342   -2.583596   -0.258820
C     -3.610151   -1.532815   -0.144340
O     -4.692216   -1.720702   -0.682652
C     -3.375175   -0.312563    0.736801
C     -3.952960   -0.662233    2.130887
C     -4.165364    0.915953    0.173309
O     -4.207949    1.971474    1.096227
C     -1.438538    0.317404   -1.691525
H      6.754329   -0.371513    0.621789
H      5.269869   -1.133375    1.296699
H      5.662322   -1.314236   -0.458279
H      5.064371    1.337361    0.987028
H      4.875780    2.315705   -1.305080
H      6.519469    1.686863   -0.927975
H      5.429125    0.747239   -2.012314
H      3.671374   -0.861254   -1.725198
H      0.354078    2.366046    1.959830
H      0.170758    0.750675    2.719836
H     -2.004636    1.574836    2.267235
H     -1.590814    2.097196    0.601382
H     -1.457287   -0.785980    1.635786
H     -0.392997   -2.581507   -0.167959
H     -1.062864   -2.227732   -1.779232
H     -2.856117   -3.376441   -0.973324
H     -2.430444   -3.067733    0.735391
H     -3.491685   -1.590114    2.533492
H     -3.767391    0.151102    2.862538
H     -5.050928   -0.826960    2.070100
H     -3.729989    1.282739   -0.774688
H     -5.214908    0.617642   -0.048279
H     -4.706287    2.708452    0.656140
H     -1.434048    1.411777   -1.518918
H     -2.443500   -0.003403   -2.030133
H     -0.763599    0.129090   -2.551346
