38

C     -5.374386    0.088783    0.092662
C     -3.890147   -0.267496    0.269189
C     -3.271468   -0.574854   -1.119186
C     -1.756514   -0.644854   -1.111243
C     -0.982189    0.080572   -0.173220
C     -1.688345    0.653593    1.003002
O     -1.096847    0.809368    2.105074
C     -3.159525    0.923417    0.924468
C      0.435026    0.131285   -0.326431
C      1.055702   -0.687249   -1.297847
C      0.267110   -1.432140   -2.186444
C     -1.120207   -1.376711   -2.119018
C      2.536524   -0.760383   -1.382224
O      3.075406   -1.442271   -2.296649
C      3.377812   -0.040619   -0.390809
C      2.758841    0.864282    0.498173
C      1.296605    1.080208    0.431944
O      0.805872    2.127321    0.935054
C      3.538368    1.576739    1.425484
C      4.918224    1.387166    1.480911
C      5.536141    0.489800    0.612206
C      4.779232   -0.227059   -0.324509
O      5.421781   -1.122858   -1.179427
O     -3.826766   -1.402432    1.104781
H     -5.495062    0.990035   -0.546741
H     -5.842113    0.292240    1.080072
H     -5.919108   -0.756230   -0.380943
H     -3.693506   -1.534147   -1.493433
H     -3.559827    0.219815   -1.842086
H     -3.569030    1.103163    1.943343
H     -3.312482    1.846787    0.323886
H      0.723624   -2.044280   -2.954250
H     -1.703571   -1.926698   -2.847563
H      3.079175    2.276487    2.112742
H      5.510777    1.937149    2.200688
H      6.608412    0.350670    0.667291
H      6.423999   -1.268673   -1.143332
H     -2.887540   -1.719924    1.141068
