46

C      1.360723    1.716571    0.308834
C      0.793140    0.294823    0.177913
C     -0.675997    0.531690   -0.165494
C     -0.625186    1.954521   -0.729461
O      0.365077    2.656283   -0.024884
O     -1.848291    2.629285   -0.615380
C     -1.564383    0.387575    1.100982
C     -3.039449    0.350360    0.783380
C     -3.582889   -0.741662    0.068282
C     -4.949393   -0.737266   -0.194998
C     -5.758730    0.269527    0.218978
C     -5.272705    1.358505    0.934917
C     -3.896378    1.393783    1.223218
O     -7.056080    0.011083   -0.179187
C     -7.061760   -1.236485   -0.887331
O     -5.697551   -1.679949   -0.873312
C      1.507107   -0.530450   -0.918380
C      2.927303   -0.862514   -0.535044
C      4.009184   -0.180908   -1.137768
C      5.298788   -0.516108   -0.735636
C      5.535854   -1.465296    0.204281
C      4.503946   -2.162494    0.824133
C      3.184255   -1.854238    0.447261
O      6.897533   -1.586806    0.403071
C      7.556874   -0.655470   -0.466316
O      6.499744    0.006789   -1.174729
H      2.243081    1.884352   -0.344188
H      1.680243    1.896080    1.357666
H      0.903610   -0.243169    1.146939
H     -1.032923   -0.173631   -0.949102
H     -0.324461    1.917263   -1.804899
H     -2.438693    2.265974   -1.326364
H     -1.320334   -0.567376    1.616013
H     -1.333625    1.205330    1.819342
H     -2.963205   -1.563448   -0.267205
H     -5.932978    2.151375    1.260619
H     -3.497432    2.231828    1.780749
H     -7.403638   -1.082238   -1.932242
H     -7.708780   -1.971192   -0.363812
H      0.958675   -1.485526   -1.073414
H      1.481313    0.016536   -1.887041
H      3.851378    0.582059   -1.889341
H      4.710608   -2.916381    1.572220
H      2.363523   -2.382329    0.916464
H      8.215124   -1.196092   -1.178314
H      8.137776    0.079438    0.129479
