44

C      8.838999    1.129750    1.148125
C      7.386184    0.800888    1.271689
C      6.498234    1.274788    0.395993
C      5.067662    0.951047    0.516523
C      4.178691    1.425132   -0.360312
C      2.714578    1.114006   -0.241382
C      2.431745   -0.357415   -0.581090
C      0.928749   -0.672462   -0.632212
C      0.274425   -0.652399    0.757714
C     -1.150428   -1.121575    0.691616
C     -2.105618   -0.376410    0.125000
C     -3.511942   -0.818837    0.062758
C     -4.473739   -0.001862   -0.539360
C     -5.809798   -0.432035   -0.594249
C     -6.145331   -1.684489   -0.036542
C     -5.115470   -2.446688    0.551863
O     -5.361731   -3.571634    1.063826
O     -3.867695   -1.992113    0.576694
C     -7.534178   -2.209131   -0.054855
O     -8.481679   -1.559261   -0.570431
O     -6.809205    0.356294   -1.189716
C     -6.590681    1.632332   -1.783131
H      8.986242    2.228461    1.215383
H      9.405112    0.641301    1.968662
H      9.229490    0.763109    0.175262
H      7.063562    0.166773    2.089602
H      6.834942    1.907882   -0.417968
H      4.731986    0.319350    1.331692
H      4.503804    2.073655   -1.165919
H      2.375993    1.350727    0.789678
H      2.157209    1.767724   -0.946761
H      2.864324   -0.582628   -1.580960
H      2.928479   -1.023839    0.157622
H      0.804984   -1.687425   -1.070524
H      0.418320    0.049203   -1.306901
H      0.836661   -1.327936    1.438264
H      0.299865    0.370972    1.188792
H     -1.395335   -2.075921    1.142512
H     -1.842732    0.584971   -0.302033
H     -4.177884    0.951867   -0.956056
H     -7.754803   -3.174187    0.382407
H     -6.200684    2.344324   -1.025412
H     -5.876994    1.543049   -2.629211
H     -7.554312    2.020644   -2.171624
