12

C      0.899244    1.065764    0.002586
C     -0.473505    1.305004    0.023596
N     -1.345655    0.262346    0.020968
C     -0.895132   -1.022429   -0.002056
O     -1.717226   -1.977719   -0.004161
N      0.442890   -1.276162   -0.022814
C      1.344425   -0.256323   -0.020874
O      2.579557   -0.504215   -0.040219
H      1.600371    1.891243    0.004530
H     -0.843830    2.322244    0.042004
H     -2.372592    0.455742    0.036878
H      0.781453   -2.265496   -0.040439
