15

C     -2.136321    0.344534   -0.525280
C     -1.302590   -0.657168    0.266156
C      0.072725   -0.113545    0.531049
O      0.293201    0.493242    1.613998
C      1.151411   -0.240667   -0.469363
O      0.929934   -0.820210   -1.566720
C      2.512744    0.319201   -0.198082
H     -1.662893    0.550608   -1.508951
H     -2.235249    1.295692    0.040436
H     -3.150528   -0.072242   -0.700155
H     -1.811029   -0.871929    1.231173
H     -1.234907   -1.612656   -0.297160
H      2.443560    1.418016   -0.055808
H      3.197168    0.111406   -1.048032
H      2.932773   -0.144284    0.719117
