44

C     -0.888017   -2.129828   -1.763237
C     -0.692646   -1.770351   -0.281265
C     -1.158845   -0.325046   -0.058594
C     -0.209272    0.724141    0.031675
C     -0.666772    2.033120    0.267472
C     -2.023526    2.316867    0.342672
C     -2.981256    1.305100    0.194161
C     -2.550777   -0.029441   -0.013090
O     -3.452508   -1.100870   -0.183077
C     -4.874150   -1.035999   -0.201571
O     -4.351987    1.603520    0.255750
C     -4.900258    2.902598    0.457287
C      1.255059    0.417700   -0.042797
C      1.690010   -0.918096    0.061347
C      0.770791   -1.983110    0.056752
N      1.223209   -3.260133    0.209851
C      2.537962   -3.553177    0.373887
C      3.488369   -2.536482    0.342351
C      3.070834   -1.211131    0.170676
C      4.013430   -0.179769    0.094587
C      3.595974    1.144937   -0.104128
C      2.229425    1.432374   -0.174849
O      4.504397    2.207180   -0.231125
C      5.920604    2.067856   -0.179757
O     -1.460194   -2.657684    0.498722
H     -0.283627   -1.457107   -2.410269
H     -0.575182   -3.179141   -1.954487
H     -1.953526   -2.037044   -2.060222
H      0.011313    2.856486    0.427368
H     -2.318113    3.341593    0.522748
H     -5.275411   -2.055332   -0.375054
H     -5.256319   -0.677961    0.777299
H     -5.219472   -0.383811   -1.031054
H     -6.007174    2.831934    0.453964
H     -4.574171    3.307178    1.438639
H     -4.586018    3.581775   -0.363142
H      2.847708   -4.582013    0.499423
H      4.538461   -2.784162    0.443035
H      5.067311   -0.415866    0.168668
H      1.953050    2.461186   -0.346130
H      6.268693    1.401166   -0.996832
H      6.387864    3.065122   -0.311887
H      6.228615    1.658991    0.805719
H     -1.343857   -2.397269    1.451081
