23

C      3.197600    0.004713   -0.396380
O      1.940826    0.086762   -1.032882
C      0.964021   -0.658206   -0.320928
C      0.295460    0.225498    0.781127
C     -1.213972   -0.063149    0.871072
C     -1.881392    0.142460   -0.509935
C     -0.903469   -0.192811   -1.653680
O      0.021450   -1.183606   -1.248317
O     -3.017943   -0.676116   -0.615260
O     -1.796858    0.789023    1.823000
O      0.918518    0.041410    2.028849
H      3.914583    0.647608   -0.946806
H      3.590071   -1.035623   -0.423958
H      3.150005    0.376226    0.650121
H      1.411740   -1.555211    0.169979
H      0.416397    1.296107    0.500914
H     -1.342019   -1.126671    1.186904
H     -2.178374    1.211753   -0.628051
H     -0.377264    0.728414   -1.995877
H     -1.467326   -0.570006   -2.533490
H     -3.739207   -0.235093   -0.094864
H     -2.664977    0.381569    2.079349
H      0.762131   -0.898249    2.309110
