35

C     -2.436802    1.164227   -0.698923
C     -1.837825    0.094046    0.250902
C     -1.682689    0.647240    1.677198
C     -0.586015    1.745109    1.752996
C      0.519152    1.685328    0.695763
O      1.390529    2.541243    0.738531
C      0.541084    0.673963   -0.452448
C     -0.467852   -0.451414   -0.171056
C     -0.756314   -1.476388   -1.270301
C     -2.065200   -2.139942   -0.816081
C     -2.665536   -1.142019    0.122847
O     -3.740389   -1.304227    0.679992
C      1.969138    0.141878   -0.738895
C      2.627377   -0.593447    0.441301
C      4.072069   -0.862148    0.146087
O      4.415647   -1.959878   -0.366301
O      5.036727    0.110475    0.392031
H     -2.462546    0.801835   -1.748512
H     -3.478346    1.401726   -0.392492
H     -1.862655    2.112592   -0.676982
H     -2.651047    1.061311    2.034623
H     -1.414109   -0.179055    2.373160
H     -0.116586    1.707611    2.759563
H     -1.080294    2.736747    1.664464
H      0.221938    1.210433   -1.372360
H     -0.064018   -1.046179    0.682139
H      0.062321   -2.223516   -1.355749
H     -0.897674   -0.968961   -2.249437
H     -1.856863   -3.086493   -0.272451
H     -2.738879   -2.328405   -1.679042
H      2.608376    1.004234   -1.032821
H      1.936492   -0.539578   -1.616862
H      2.558749    0.013737    1.368383
H      2.117301   -1.562606    0.623678
H      4.784739    1.010519    0.782833
