37

C     -2.529714    1.870295   -2.301864
C     -2.497749    0.858544   -1.181460
C     -1.473789   -0.119697   -1.123325
C     -1.373685   -0.973287   -0.005105
C     -2.340151   -0.918053    1.014230
C     -3.401961   -0.006718    0.906783
C     -3.499415    0.861275   -0.181905
O     -4.615500    1.700499   -0.240820
O     -2.215745   -1.780852    2.117080
C     -3.119217   -1.826123    3.216772
C     -0.275491   -1.965958    0.080987
O     -0.566441   -3.180950    0.245220
C      1.151683   -1.592641   -0.020832
C      1.586601   -0.331631    0.123269
C      3.011687    0.066979    0.019616
C      4.072224   -0.840826    0.221829
C      5.399236   -0.410272    0.122288
C      5.684283    0.925023   -0.170159
C      4.642653    1.835667   -0.357138
C      3.314124    1.411569   -0.258073
O     -0.559155   -0.285975   -2.169952
H     -1.506577    2.131647   -2.639534
H     -3.116661    1.470310   -3.154683
H     -2.963202    2.833788   -1.966964
H     -4.171632    0.033868    1.665633
H     -4.853731    2.261497   -1.047577
H     -3.146304   -0.841567    3.729703
H     -4.135251   -2.103820    2.865105
H     -2.772149   -2.593039    3.939041
H      1.852268   -2.395255   -0.203827
H      0.865986    0.458811    0.294138
H      3.889188   -1.874120    0.480393
H      6.208091   -1.112193    0.279573
H      6.712258    1.255310   -0.245458
H      4.864256    2.871790   -0.578267
H      2.520039    2.133314   -0.407502
H     -0.641057    0.172789   -3.067213
