38

C     -5.521522   -0.370425    0.565797
C     -4.031570   -0.459451    0.901898
C     -3.280304   -1.353468   -0.112137
C     -1.788317   -1.286672    0.122111
O     -1.227596   -2.126423    0.879052
N     -1.021580   -0.225197   -0.465605
C      0.408085   -0.052462   -0.190596
C      1.035483    0.915962   -1.211533
C      2.535017    0.988458   -1.065114
C      3.128085    2.020243   -0.318829
C      4.516190    2.065841   -0.158120
C      5.324620    1.077623   -0.736073
C      4.737281    0.044052   -1.472898
C      3.349326   -0.004055   -1.634595
O      6.708680    1.112615   -0.582530
C      0.596492    0.453980    1.212799
O     -0.073177    1.437518    1.629555
O      1.537691   -0.146122    2.043211
N     -3.773159   -2.735083   -0.066443
O     -3.887858   -0.955811    2.208914
H     -6.025890    0.314344    1.280241
H     -5.662994    0.029290   -0.461029
H     -6.001329   -1.369734    0.637009
H     -3.621714    0.577364    0.841348
H     -3.478195   -0.956778   -1.133055
H     -1.514686    0.465000   -1.077314
H      0.910781   -1.040110   -0.294857
H      0.587045    1.928556   -1.101874
H      0.791426    0.568436   -2.239633
H      2.515884    2.785901    0.141438
H      4.961785    2.866922    0.417759
H      5.356774   -0.724245   -1.917831
H      2.908405   -0.815196   -2.200833
H      7.164264    1.847542   -0.054126
H      1.688247    0.191264    2.986333
H     -3.270106   -3.294954   -0.793218
H     -3.558150   -3.161709    0.864185
H     -3.023412   -0.613015    2.556594
