17

C      0.388221    0.935768    0.223441
C     -0.624400    0.357003   -0.794169
C     -1.253064   -0.921857   -0.314229
O     -0.672679   -2.026101   -0.496896
O     -2.468212   -0.882713    0.362805
O      0.000231    0.129966   -2.032102
C      1.556396    0.003419    0.463220
O      1.500744   -0.874095    1.365592
O      2.689113    0.074441   -0.342937
N     -0.281815    1.299914    1.476727
H      0.793304    1.874321   -0.216263
H     -1.444070    1.100314   -0.933539
H     -2.899909   -1.732848    0.704886
H      0.145865    1.019320   -2.449165
H      2.759633    0.752152   -1.092447
H      0.409537    1.782369    2.096447
H     -0.598895    0.438887    1.978628
