48

C      1.899379    1.477782   -0.914118
C      1.713698    0.445680    0.239728
C      2.414475    0.987235    1.520483
C      3.942145    1.145919    1.355186
C      4.593039    0.083590    0.498555
C      3.891169   -0.788068   -0.241453
C      2.396801   -0.921227   -0.082965
C      1.749677   -1.638693   -1.279844
C      0.263964   -1.902662   -1.005283
C     -0.488352   -0.596207   -0.685855
C      0.189699    0.159030    0.515480
C     -0.631124    1.409265    0.979594
C     -2.143597    1.121396    1.175812
C     -2.733323    0.428700   -0.068331
C     -1.950133   -0.872210   -0.293171
C     -2.849720   -1.735580   -1.179274
C     -4.260306   -1.445223   -0.635621
C     -4.108897   -0.133111    0.073757
O     -5.025722    0.435886    0.646055
C     -2.765484    1.398674   -1.282804
H      1.575148    2.489864   -0.595973
H      1.333782    1.209408   -1.824957
H      2.962061    1.562922   -1.218920
H      2.223070    0.294808    2.370410
H      2.001131    1.977103    1.807486
H      4.154834    2.133711    0.892998
H      4.420065    1.141973    2.357894
H      5.673295    0.105973    0.392358
H      4.425772   -1.473343   -0.893265
H      2.258558   -1.591469    0.797153
H      1.867720   -1.042086   -2.209541
H      2.253487   -2.616447   -1.444234
H      0.167371   -2.616201   -0.156895
H     -0.181019   -2.380629   -1.904664
H     -0.477258    0.017756   -1.606007
H      0.156616   -0.540160    1.383791
H     -0.510624    2.244930    0.263651
H     -0.242145    1.767189    1.955149
H     -2.277999    0.475871    2.072249
H     -2.679382    2.075529    1.372571
H     -1.906859   -1.430600    0.676449
H     -2.599956   -2.814857   -1.086246
H     -2.764970   -1.427429   -2.243838
H     -4.999738   -1.367390   -1.460896
H     -4.569030   -2.228719    0.089457
H     -3.439014    2.254533   -1.061378
H     -1.772685    1.820791   -1.528573
H     -3.149620    0.896792   -2.195800
