28

C      3.825869   -0.247216    0.130864
C      2.330183   -0.089322    0.121642
C      1.744577    0.663772    1.076774
C      0.259189    0.924838    1.120347
C     -0.546918   -0.159092    0.376768
C      0.074125   -0.382100   -1.015888
C      1.515930   -0.886021   -0.878879
C     -2.071919    0.169940    0.345104
C     -2.911337   -1.085276    0.060484
C     -2.450335    1.287443   -0.643018
H      4.158109   -0.943288   -0.668173
H      4.307818    0.738930   -0.037522
H      4.157606   -0.654062    1.109712
H      2.366478    1.194587    1.792895
H      0.081756    1.923740    0.672177
H     -0.063815    0.963488    2.182936
H     -0.422802   -1.101086    0.959527
H     -0.509323   -1.130739   -1.591408
H      0.081626    0.569945   -1.590700
H      2.004238   -0.842022   -1.876313
H      1.502106   -1.948562   -0.552783
H     -2.363993    0.517090    1.361594
H     -3.992813   -0.849803    0.157852
H     -2.728149   -1.466997   -0.965437
H     -2.671527   -1.886387    0.791583
H     -3.525885    1.541375   -0.529037
H     -1.868163    2.210040   -0.447762
H     -2.282629    0.966786   -1.692824
