28

C     -2.651854   -1.250861    1.003132
C     -1.455398   -1.489409    0.330995
C     -0.843118   -0.473607   -0.421146
C     -1.448016    0.808579   -0.488951
C     -2.656071    1.041549    0.215063
C     -3.249663    0.005154    0.941668
O     -3.281760    2.290079    0.238541
N     -0.826301    1.864037   -1.239665
C      0.399535   -0.784629   -1.163576
O      0.480964   -0.496681   -2.388301
C      1.593894   -1.389352   -0.473264
C      2.510963   -0.299940    0.121946
C      1.834363    0.434573    1.246493
O      1.500775   -0.177022    2.297356
O      1.565156    1.793945    1.121985
N      3.766681   -0.878275    0.604541
H     -3.119661   -2.044294    1.571733
H     -1.024450   -2.481614    0.374456
H     -4.174986    0.181008    1.475810
H     -2.886400    3.125047   -0.170429
H     -1.373378    2.661588   -1.627853
H      0.193662    1.846787   -1.459157
H      2.167518   -1.982997   -1.218215
H      1.275136   -2.094727    0.322996
H      2.754949    0.434629   -0.678572
H      1.097512    2.300986    1.863760
H      3.558881   -1.676133    1.249344
H      4.291068   -1.268420   -0.212300
