41

C     -3.238700    0.025885    2.885687
C     -1.905189   -0.627747    2.493973
C     -1.204166    0.196668    1.383560
C     -2.221186    1.037679    0.568391
C     -3.613405    0.354617    0.538935
O     -4.177793    0.088457    1.820676
O     -3.547621   -0.847167   -0.184549
O     -2.330562    2.319174    1.135325
O     -0.490839   -0.681791    0.523969
C      0.618458   -0.053451   -0.100876
C      1.913373   -0.590366    0.543388
C      3.146024   -0.038580   -0.199574
C      3.002056   -0.218824   -1.726868
C      1.609744    0.277410   -2.188615
O      0.582205   -0.393063   -1.477551
C      1.409949    0.050659   -3.694036
O      0.171378    0.563434   -4.105468
O      3.238914   -1.554452   -2.108067
O      4.303805   -0.685818    0.262377
O      1.957181   -0.201192    1.892064
O     -2.152433   -1.947968    2.075729
H     -3.062035    1.047025    3.287867
H     -3.691616   -0.563796    3.710728
H     -1.254925   -0.640607    3.401648
H     -0.507615    0.891076    1.913082
H     -1.852659    1.143504   -0.479077
H     -4.316474    1.042691    0.015497
H     -3.456657   -0.605032   -1.143459
H     -2.763308    2.900360    0.456160
H      0.593356    1.061665    0.003274
H      1.900751   -1.703964    0.475433
H      3.219498    1.053182    0.021557
H      3.775535    0.411399   -2.218219
H      1.548472    1.378809   -2.019219
H      1.428129   -1.037042   -3.918058
H      2.233698    0.531403   -4.269965
H      0.272458    1.550147   -4.150117
H      2.505586   -2.114789   -1.745319
H      5.076312   -0.148966   -0.055065
H      2.601271   -0.805347    2.345690
H     -1.320971   -2.465282    2.241595
