47

C     -1.568182   -3.520564   -2.690263
C     -0.399018   -3.257491   -1.792434
O      0.391063   -4.202704   -1.526206
N     -0.154516   -1.942146   -1.256448
C     -1.205799   -1.151927   -0.656328
C     -1.054520    0.244243   -0.545606
C      0.164219    0.923141   -1.117451
N      1.333892    0.036509   -1.091943
C      1.158281   -1.362865   -1.352218
O      2.153116   -2.072665   -1.665809
N      2.638258    0.571069   -1.044042
C      3.099683    0.532733    0.344853
C      4.534927    0.972450    0.415350
C      4.861487    2.315250    0.658039
N      6.163293    2.708338    0.684502
C      7.179344    1.830556    0.471325
C      6.900208    0.487707    0.210301
C      5.571875    0.059315    0.176652
C     -2.074180    1.017875    0.030400
C     -3.238473    0.417187    0.550168
C     -3.351119   -0.984665    0.481477
C     -2.349328   -1.756708   -0.108379
C     -4.339436    1.270914    1.190240
C     -4.467048    0.965712    2.702046
F     -4.927440   -0.318765    2.929253
F     -3.232406    1.106458    3.312175
F     -5.345392    1.856611    3.293873
C     -5.685105    1.104286    0.442152
F     -6.600203    2.035917    0.900807
F     -6.222373   -0.157626    0.621284
F     -5.496018    1.316337   -0.912725
F     -3.999966    2.613576    1.086957
H     -2.072384   -2.571170   -2.967613
H     -1.218566   -4.016881   -3.619565
H     -2.293595   -4.185594   -2.177461
H      0.387172    1.845396   -0.537351
H     -0.047424    1.214593   -2.167997
H      2.606022    1.571753   -1.352780
H      2.463451    1.190439    0.979604
H      3.014851   -0.502013    0.745886
H      4.082793    3.048377    0.824737
H      8.203996    2.176349    0.499452
H      7.705349   -0.213262    0.032558
H      5.351316   -0.979700   -0.035095
H     -1.946415    2.091930    0.071613
H     -4.211138   -1.496428    0.887204
H     -2.464551   -2.831845   -0.116385
