48

C      0.982144   -1.798828    1.335106
C     -0.318310   -2.585744    1.345785
N     -0.831464   -2.636367   -0.042698
C     -2.278611   -2.278673   -0.104904
C     -2.488338   -0.776814   -0.210799
C     -3.360599   -0.152025    0.604548
C     -3.541521    1.340625    0.607807
O     -2.354914    1.980559    1.045493
C     -1.502075    2.301757   -0.042913
C     -0.467995    3.371620    0.418718
C      0.825111    2.811154    0.983302
O      1.630606    3.581559    1.569579
N      1.160936    1.426478    0.796633
C      0.109981    0.452426    0.538848
C     -0.766345    1.052213   -0.579878
C     -1.656385   -0.015302   -1.235256
C     -0.704752   -0.989415   -1.944746
C      0.067303   -1.776323   -0.867973
C      0.844169   -0.875677    0.130167
C      2.190613   -0.355446   -0.283167
C      3.237787   -1.026339   -0.922588
C      4.444596   -0.341564   -1.132352
C      4.594855    0.985633   -0.689141
C      3.542120    1.635781   -0.026233
C      2.349418    0.934696    0.180976
H      1.142819   -1.249705    2.289628
H      1.828592   -2.507305    1.186959
H     -1.026724   -2.073504    2.037042
H     -0.142943   -3.610581    1.744070
H     -0.741735   -3.624232   -0.383274
H     -2.829831   -2.714502    0.759596
H     -2.734792   -2.745518   -1.005835
H     -3.940832   -0.732134    1.316883
H     -4.344347    1.587204    1.333642
H     -3.909332    1.690925   -0.383559
H     -2.077381    2.773209   -0.874519
H     -0.936393    4.045175    1.168695
H     -0.195825    3.999748   -0.457178
H     -0.495213    0.308014    1.461710
H     -0.094220    1.438505   -1.383845
H     -2.322302    0.454859   -1.991602
H     -1.278616   -1.689300   -2.590676
H      0.006495   -0.455769   -2.613391
H      0.795992   -2.430315   -1.399329
H      3.130522   -2.053622   -1.243481
H      5.265869   -0.838897   -1.631731
H      5.528509    1.506628   -0.856837
H      3.663356    2.655133    0.311961
