46

C     -1.568950   -3.987679    0.203182
N     -1.010501   -2.628059    0.311925
C     -1.613427   -1.932425    1.473639
C     -1.011864   -0.517009    1.662756
C     -0.733545    0.231336    0.318556
C     -1.107127    1.710029    0.475033
C     -1.943537    2.371444   -0.335234
C     -2.597600    1.646255   -1.448044
O     -3.335141    2.237214   -2.279335
C     -2.386187    0.206993   -1.586981
C     -1.569518   -0.444467   -0.750595
C     -1.186213   -1.878747   -0.981033
C      0.142714   -1.805145   -1.752726
C      1.149406   -0.896772   -1.062620
C      0.762103    0.062612   -0.071941
C      1.794286    0.753307    0.622140
C      3.140760    0.615941    0.232161
C      3.473718   -0.255680   -0.814249
C      2.491321   -1.013226   -1.439179
O      4.121541    1.355779    0.913606
C      5.515866    1.310644    0.627399
O      1.485391    1.554223    1.722572
O     -2.170219    3.731305   -0.059771
C     -3.042940    4.588674   -0.786312
H     -1.362851   -4.570723    1.128035
H     -2.669376   -3.955038    0.040630
H     -1.098332   -4.531451   -0.645354
H      0.007119   -2.747999    0.534834
H     -1.445025   -2.515103    2.407710
H     -2.715180   -1.840994    1.332063
H     -1.726369    0.059346    2.292108
H     -0.079192   -0.604773    2.261811
H     -0.715254    2.260016    1.318519
H     -2.877642   -0.321611   -2.395200
H     -1.950044   -2.367702   -1.631084
H     -0.043538   -1.413954   -2.777280
H      0.559713   -2.830769   -1.858773
H      4.498946   -0.378334   -1.135311
H      2.781151   -1.708923   -2.217565
H      6.049775    1.993864    1.319109
H      5.903287    0.280652    0.776398
H      5.702794    1.643808   -0.415306
H      2.188583    2.052112    2.254721
H     -3.030232    5.594502   -0.318923
H     -4.082010    4.198915   -0.750035
H     -2.696660    4.687613   -1.836495
