37

C     -3.485404    2.117958   -0.534014
C     -2.435331    1.244172    0.092668
C     -1.136675    1.564596   -0.009340
C     -0.129348    0.590923    0.541091
C     -0.561800   -0.835725    0.037355
C      0.473759   -1.937522    0.437227
C      1.850404   -1.472689    0.067651
C      3.055838   -2.152705   -0.075484
N      4.066375   -1.263075   -0.274521
C      3.497970   -0.041174   -0.234520
C      4.105291    1.212728   -0.291012
C      3.280228    2.346574   -0.107096
C      1.888215    2.199847    0.133396
C      1.304195    0.912222    0.146575
C      2.162811   -0.155877   -0.026989
N     -1.955442   -1.190582    0.471513
C     -2.804516   -0.019485    0.848603
C     -2.633491   -1.987353   -0.570106
H     -4.503867    1.718007   -0.348364
H     -3.426310    3.141003   -0.106209
H     -3.322020    2.171183   -1.631088
H     -0.830557    2.449918   -0.559453
H     -0.181388    0.611481    1.652197
H     -0.526475   -0.778609   -1.079119
H      0.251715   -2.889561   -0.088635
H      0.441004   -2.112154    1.533828
H      3.192292   -3.223876   -0.007452
H      5.080762   -1.483141   -0.387678
H      5.172211    1.314174   -0.440905
H      3.719820    3.335310   -0.120610
H      1.288171    3.078809    0.327509
H     -1.898300   -1.800611    1.321918
H     -2.663769    0.195966    1.931982
H     -3.888738   -0.244358    0.733672
H     -3.602950   -2.380581   -0.191775
H     -2.827865   -1.370696   -1.475820
H     -2.016817   -2.865096   -0.860545
