32

C      0.590109    0.385581   -2.412619
C      0.736844   -0.331211   -1.064469
C      1.486647    0.541634   -0.034084
C      1.804307   -0.207878    1.232662
O      0.946901   -0.642914    2.046059
N      3.200231   -0.328906    1.446367
C      3.755483    0.357180    0.341329
N      5.027459    0.496988    0.151301
O      2.791506    0.867530   -0.517914
C     -0.613376   -0.782686   -0.553832
C     -0.991522   -2.107851   -0.349978
N     -2.255861   -2.176675    0.120933
C     -2.686222   -0.908129    0.218343
C     -3.936302   -0.478754    0.661781
C     -4.186363    0.904042    0.688049
C     -3.192907    1.817138    0.275022
C     -1.939846    1.356890   -0.167895
C     -1.715595   -0.022944   -0.184133
H      0.069375    1.357789   -2.299936
H      0.015907   -0.248289   -3.122055
H      1.590574    0.573588   -2.856743
H      1.354847   -1.238792   -1.251183
H      0.937819    1.475214    0.204640
H      3.695105   -0.776031    2.249737
H      5.380664    1.014915   -0.683584
H      5.713493    0.094614    0.828015
H     -0.370723   -2.975156   -0.533656
H     -2.786614   -3.043365    0.361021
H     -4.691908   -1.186855    0.976640
H     -5.146636    1.270404    1.026914
H     -3.396721    2.879743    0.299037
H     -1.186676    2.063187   -0.483096
