39

C      3.768127    2.059936   -1.158026
C      2.888130    1.397557   -0.149051
O      2.769819    1.901922    1.001218
N      2.174824    0.202899   -0.502099
C      1.237432   -0.472663    0.403290
C      1.564880   -1.988382    0.459250
C      0.691899   -2.755319   -0.539532
C     -0.821425   -2.516876   -0.246034
O     -1.069548   -1.260578    0.391949
C     -0.218818   -0.230520   -0.084956
C     -0.753148    1.148741    0.383593
C     -2.138358    1.474528   -0.234861
C     -2.664008    2.842940    0.224166
O     -3.025755    2.802306    1.577463
O     -2.023780    1.498018   -1.637100
O     -0.794225    1.213979    1.789509
C     -1.628330   -2.619101   -1.520941
O     -2.660692   -1.915101   -1.676079
O     -1.290460   -3.553440   -2.493829
O     -1.247618   -3.538284    0.619183
O      1.335161   -2.492915    1.751488
H      4.326330    2.902994   -0.698808
H      4.497478    1.323182   -1.555330
H      3.146670    2.447443   -1.992691
H      2.269938   -0.159329   -1.478825
H      1.356499   -0.069197    1.432645
H      2.633731   -2.160936    0.188429
H      0.954218   -2.406468   -1.564194
H      0.933815   -3.840884   -0.497301
H     -0.224026   -0.225595   -1.200594
H     -0.040547    1.926873    0.032093
H     -2.871086    0.695313    0.088791
H     -3.559097    3.106973   -0.384319
H     -1.887307    3.623718    0.060816
H     -3.379068    3.702709    1.795256
H     -2.700317    0.872864   -2.006156
H     -1.473243    0.562333    2.102371
H     -2.168962   -3.316702    0.916895
H      2.090864   -2.184939    2.318118
