49

C      1.579563   -0.517718   -0.498731
C      1.719690    0.272779    0.813170
C      3.044544    1.109310    0.931289
O      2.635664    2.471764    0.867512
C      1.263330    2.543290    0.895027
O      0.630321    3.631804    0.908579
N      0.648998    1.267590    0.911936
C     -0.754538    1.017780    1.117996
O     -1.573903    1.974071    1.045962
N     -1.233964   -0.304550    1.413322
C     -2.653216   -0.584698    1.638569
C     -3.478109   -0.508821    0.361463
C     -2.854051   -0.646182   -0.895144
N     -3.574079   -0.570732   -2.042540
C     -4.915833   -0.383455   -2.039398
C     -5.608892   -0.289139   -0.829105
C     -7.003297   -0.130139   -0.825456
C     -7.699153   -0.067813    0.381554
C     -7.012461   -0.171697    1.590501
C     -5.623555   -0.326199    1.602978
C     -4.892923   -0.371048    0.393852
C      4.110449    0.809458   -0.102996
C      5.061409   -0.193650    0.149885
C      6.030314   -0.525656   -0.813822
C      6.061322    0.186942   -2.024642
C      5.110551    1.175477   -2.286946
C      4.133876    1.480947   -1.337579
C      7.078251   -1.567464   -0.511942
F      6.558897   -2.558872    0.302559
F      8.143881   -0.967325    0.132235
F      7.531979   -2.160135   -1.677741
H      2.400207   -1.259452   -0.592483
H      0.623161   -1.076782   -0.514949
H      1.595837    0.167660   -1.372299
H      1.662208   -0.431555    1.671528
H      3.472250    0.943472    1.945467
H     -0.557586   -1.087175    1.549021
H     -3.025161    0.143081    2.389566
H     -2.761986   -1.604994    2.065019
H     -1.788975   -0.809338   -0.973559
H     -5.441777   -0.327445   -2.984538
H     -7.554722   -0.061432   -1.755801
H     -8.774970    0.051375    0.379806
H     -7.559426   -0.136887    2.524011
H     -5.143296   -0.425652    2.565383
H      5.042447   -0.717047    1.098353
H      6.818333   -0.022495   -2.769877
H      5.131212    1.707220   -3.229505
H      3.397183    2.240247   -1.567492
