49

C      5.800827   -0.828207    0.410327
C      4.474863   -0.162168    0.046999
C      4.321351    1.167085    0.802120
C      2.938639    1.702739    0.592812
O      2.607242    2.752184    1.124562
C      1.998552    0.970437   -0.327085
C      2.128741   -0.589131   -0.037934
O      3.416770   -1.034557    0.390022
O      1.208705   -1.011416    0.956153
C     -0.126461   -0.562907    0.758951
C     -1.075868   -1.748768    0.516883
C     -2.558469   -1.267560    0.486983
C     -2.765583   -0.080195   -0.513355
C     -1.720106    1.065492   -0.336796
C     -0.283515    0.482834   -0.356982
O      0.681726    1.483237   -0.134906
N     -1.908740    2.105848   -1.382112
C     -1.579652    3.454740   -0.904410
O     -2.830739   -0.517970   -1.850926
N     -3.460021   -2.408245    0.195683
C     -4.879879   -2.065467    0.345154
O     -0.886985   -2.729861    1.508010
O      2.409217    1.257774   -1.642844
H      5.838412   -1.055899    1.497315
H      6.650714   -0.162247    0.148334
H      5.910678   -1.778058   -0.154888
H      4.492296    0.012513   -1.052682
H      4.479422    1.008652    1.891404
H      5.065717    1.904110    0.430558
H      1.895053   -1.147342   -0.972314
H     -0.427363   -0.077877    1.715158
H     -0.819492   -2.213013   -0.459814
H     -2.794129   -0.878777    1.505299
H     -3.752154    0.374150   -0.277503
H     -1.900508    1.506543    0.671965
H     -0.127536    0.010881   -1.353157
H     -1.329448    1.893039   -2.227931
H     -2.910150    2.134937   -1.687168
H     -2.199880    3.721895   -0.020949
H     -1.790814    4.195474   -1.705885
H     -0.506158    3.541914   -0.643302
H     -2.001094   -1.017056   -2.056798
H     -3.293971   -2.771964   -0.771406
H     -3.260771   -3.185642    0.867498
H     -5.493025   -2.992236    0.315860
H     -5.219995   -1.416380   -0.489470
H     -5.067863   -1.558655    1.316837
H     -1.112202   -2.321616    2.384898
H      1.763647    0.836733   -2.265985
