48

C      3.421468    1.293108    1.020838
C      2.703731    0.469352   -0.062168
C      3.610401   -0.656425   -0.664990
C      2.901215   -1.426213   -1.827065
C      1.380581   -1.663199   -1.608158
C      0.710739   -0.437458   -0.938740
C      1.387417   -0.196601    0.407163
C      0.384107    0.683931    1.189603
C     -1.027886    0.282127    0.658101
C     -0.783306   -0.588891   -0.627672
C     -1.711684   -0.250882   -1.835237
C     -3.155995    0.135252   -1.416925
C     -3.230844    0.826019   -0.021698
C     -1.894029    1.499233    0.294152
C     -3.303289   -0.215915    1.065790
C     -4.408628   -0.871906    1.440706
C     -1.951892   -0.480829    1.641737
O     -4.276760    1.762412    0.066359
C      0.569988    0.562815    2.682265
O      0.547302    1.595087    3.402920
O      0.722727   -0.682674    3.281266
O      1.014470    0.747173   -1.681616
C      2.180323    1.300175   -1.185656
O      2.743507    2.310203   -1.684109
O      3.979290   -1.578234    0.331117
H      4.399596    1.655849    0.639576
H      2.822090    2.178595    1.318373
H      3.599710    0.670145    1.922555
H      4.529128   -0.189394   -1.095080
H      3.406145   -2.401556   -1.998158
H      3.027097   -0.839829   -2.763913
H      0.895728   -1.863369   -2.587799
H      1.241568   -2.565594   -0.972904
H      1.560762   -1.153917    0.950759
H      0.560825    1.748991    0.918179
H     -0.958520   -1.661214   -0.385310
H     -1.294865    0.600065   -2.414454
H     -1.746166   -1.116763   -2.531366
H     -3.567582    0.821527   -2.189261
H     -3.797906   -0.773248   -1.427554
H     -1.490001    2.088951   -0.558441
H     -1.993664    2.180552    1.170898
H     -4.361390   -1.624858    2.221084
H     -5.364575   -0.671500    0.969442
H     -1.931750   -0.047610    2.664196
H     -1.725167   -1.567531    1.697125
H     -5.101853    1.322733   -0.266468
H      4.777833   -1.208686    0.790541
