21

C     -0.323036   -1.007007    0.427949
C     -1.759128   -0.554759    0.577744
C     -2.203745    0.562730   -0.015517
C     -1.292069    1.420633   -0.796499
O     -1.733123    2.461326   -1.352806
C      0.148665    1.033946   -0.978118
C      0.644343    0.183081    0.218451
C      2.079632   -0.334959   -0.035513
O      2.126212   -1.152620   -1.173936
O      0.639184    0.961075    1.394731
O     -3.539378    0.929557    0.115041
O     -2.650141   -1.338944    1.308297
H     -0.274723   -1.703584   -0.436815
H     -0.019945   -1.571835    1.336432
H      0.231717    0.456069   -1.923871
H      0.772113    1.949037   -1.081469
H      2.425302   -0.912388    0.851688
H      2.768870    0.528607   -0.174020
H      3.069796   -1.446489   -1.264087
H      1.242168    1.737630    1.253176
H     -2.352712   -2.201107    1.749143
