44

C     -2.963101   -3.946512   -1.169234
O     -1.921953   -2.976362   -1.135128
C     -2.094832   -1.648984   -0.717988
C     -3.336536   -1.132536   -0.282444
C     -3.456288    0.216127    0.131499
C     -2.309007    1.044146    0.123260
C     -1.099773    0.513566   -0.327573
C     -0.999924   -0.788474   -0.723219
O      0.290135   -1.108797   -1.088224
C      1.143971    0.029748   -0.957401
C      0.237343    1.172806   -0.396890
C      0.216494    2.369895   -1.308373
O      1.216758    3.057786   -1.435184
C      2.296920   -0.273730   -0.028892
C      3.575750    0.235184   -0.308709
C      4.651935   -0.006790    0.568211
C      4.433458   -0.753504    1.734581
C      3.155059   -1.246984    2.024455
C      2.092124   -1.003661    1.153295
O      5.494433   -0.997960    2.604968
O      5.945128    0.478232    0.317230
C      6.309401    1.250824   -0.822068
C     -4.779692    0.699248    0.597091
C     -5.125874    1.992869    0.641693
C     -6.454883    2.426968    1.100260
O     -6.740898    3.652657    1.104156
O     -7.401607    1.504672    1.532142
H     -3.373034   -4.102440   -0.148997
H     -2.550734   -4.908122   -1.537456
H     -3.768956   -3.617468   -1.858841
H     -4.211294   -1.769424   -0.264967
H     -2.335269    2.065645    0.475690
H      1.527559    0.280629   -1.972321
H      0.539316    1.488010    0.626892
H     -0.683026    2.637594   -1.855014
H      3.724128    0.818964   -1.207317
H      2.983266   -1.816222    2.929154
H      1.108561   -1.381197    1.403621
H      5.369529   -1.532830    3.456577
H      5.731083    2.198686   -0.841493
H      7.389739    1.495339   -0.763736
H      6.125896    0.671043   -1.751267
H     -5.512502   -0.049290    0.875768
H     -4.438800    2.760650    0.313435
