48

C     -0.950688   -3.950440    0.021613
C     -1.928356   -2.783764   -0.126479
C     -1.549477   -1.433517    0.384484
O     -1.403725   -1.782879   -0.973276
C     -2.729274   -0.480695    0.655782
C     -2.302543    0.969091    0.840692
C     -1.877458    1.347112    2.063344
C     -2.407020    1.969373   -0.327221
C     -1.566494    1.447502   -1.485767
O     -2.135106    0.936970   -2.488522
O     -0.162736    1.423446   -1.456070
C      0.663141    2.122529   -0.525413
C      2.035522    1.513832   -0.495388
C      3.072229    2.070912    0.098179
C      4.270790    1.202785   -0.023191
N      3.818551   -0.037384   -0.689586
C      2.407185    0.176414   -1.050697
C      1.580239   -0.998870   -0.496134
C      2.622791   -2.037261   -0.135910
C      3.851516   -1.215268    0.191313
O      0.847752   -0.622510    0.676363
C     -0.262463   -1.318709    1.166878
O     -0.235074   -1.746006    2.350528
C     -3.888896    2.136937   -0.752214
O     -1.909218    3.242449    0.024439
H      0.092942   -3.657260   -0.217410
H     -0.993537   -4.336789    1.060940
H     -1.248570   -4.763547   -0.672201
H     -2.996461   -2.990591   -0.351325
H     -3.268283   -0.830851    1.563245
H     -3.458829   -0.560046   -0.174910
H     -1.829620    0.632203    2.879320
H     -1.559795    2.359312    2.283540
H      0.728613    3.189200   -0.828758
H      0.255963    2.056447    0.501106
H      3.054450    3.040429    0.586194
H      5.019177    1.708933   -0.668389
H      4.729121    1.033373    0.975796
H      2.323204    0.207023   -2.159331
H      0.909310   -1.381634   -1.289312
H      2.313226   -2.673173    0.722024
H      2.829946   -2.683571   -1.017528
H      3.803751   -0.939925    1.270123
H      4.776252   -1.802087    0.006653
H     -3.974353    2.941611   -1.513982
H     -4.511954    2.421189    0.123061
H     -4.314919    1.211829   -1.190768
H     -2.540825    3.665876    0.664167
