32

C     -3.415615   -0.366164   -0.260754
C     -4.520992    0.702586   -0.256597
C     -4.249986    1.467194    0.976043
O     -4.967759    2.416032    1.387684
N     -3.089784    1.039635    1.652176
C     -2.472996   -0.057751    0.929499
C     -1.098136    0.331205    0.456447
O     -0.879261    1.511825    0.068162
N     -0.058382   -0.655487    0.387452
C      1.276809   -0.345378   -0.131672
C      2.273263   -1.454105    0.270978
C      3.732388   -1.134549   -0.094642
C      4.273231    0.009775    0.712627
O      4.615058   -0.177382    1.910791
N      4.377289    1.314966    0.143612
C      1.206773   -0.203884   -1.626774
O      1.626136    0.844262   -2.184322
O      0.684464   -1.231773   -2.402667
H     -3.870908   -1.371391   -0.122283
H     -2.880713   -0.364404   -1.236843
H     -5.530270    0.239644   -0.214882
H     -4.433038    1.368159   -1.141944
H     -2.724910    1.457319    2.537355
H     -2.406679   -0.939984    1.603100
H     -0.279047   -1.632370    0.688618
H      1.615502    0.612723    0.321167
H      2.207003   -1.624331    1.368551
H      1.984017   -2.407768   -0.223423
H      3.822491   -0.917697   -1.180375
H      4.354034   -2.033348    0.107861
H      4.088691    1.492253   -0.843836
H      4.741325    2.110189    0.713868
