44

C      1.749467   -4.344206   -0.020836
O      1.082924   -3.196788    0.494379
C      1.485948   -1.875985    0.251847
C      2.610229   -1.544977   -0.538625
C      2.973217   -0.193420   -0.754051
C      2.183186    0.831993   -0.182756
C      1.087383    0.476605    0.604079
C      0.751097   -0.830452    0.804956
O     -0.382546   -0.948085    1.580982
C     -0.874920    0.342660    1.947962
C      0.101270    1.367064    1.283468
C      0.769151    2.251953    2.298965
O      1.550218    1.765702    3.160270
O      0.504315    3.615334    2.307108
C     -2.292917    0.523825    1.457218
C     -2.659810    0.121767    0.160655
C     -3.973102    0.322276   -0.307865
C     -4.914293    0.938300    0.528920
C     -4.546323    1.353560    1.815194
C     -3.243258    1.153516    2.274401
O     -6.216007    1.137914    0.072114
O     -4.376888   -0.072635   -1.592994
C     -3.528041   -0.705095   -2.545533
C      4.152391    0.095857   -1.606939
C      4.823331    1.256358   -1.581067
C      5.997260    1.504439   -2.434352
O      6.408027    0.634390   -3.248070
O      6.662806    2.719722   -2.342483
H      1.738847   -4.325261   -1.131142
H      2.795366   -4.377092    0.350966
H      1.220655   -5.256136    0.324222
H      3.207444   -2.329232   -0.985171
H      2.388269    1.879188   -0.354910
H     -0.843902    0.415246    3.058587
H     -0.408584    1.992243    0.516640
H     -1.918059   -0.339887   -0.476862
H     -5.270434    1.835747    2.459553
H     -2.976094    1.491169    3.268140
H     -6.919459    1.580982    0.651568
H     -3.154819   -1.670507   -2.143023
H     -4.107057   -0.905912   -3.470035
H     -2.675010   -0.040232   -2.797772
H      4.505305   -0.699076   -2.254075
H      4.533418    2.047169   -0.903634
