28

C      1.094492    0.046656    0.012379
C     -0.359605    0.386115   -0.360035
N     -1.354826   -0.252417    0.543819
C     -2.721665    0.262376    0.272028
C     -2.896497    1.675425    0.752789
O     -2.983969    1.918686    1.985082
O     -2.943314    2.721792   -0.159821
C     -1.332680   -1.738349    0.484503
C     -1.613335   -2.291603   -0.886912
O     -0.663467   -2.572496   -1.664301
O     -2.923466   -2.486122   -1.305884
N      2.017177    0.894078   -0.756155
C      3.414469    0.461028   -0.604320
C      3.939985    0.730584    0.775854
O      4.280735    1.896521    1.107023
O      4.019517   -0.299747    1.704122
H      1.245372    0.209697    1.102664
H      1.289467   -1.020943   -0.224977
H     -0.545441    0.107295   -1.420483
H     -0.462885    1.492131   -0.300558
H     -1.107975    0.005970    1.529710
H     -2.950033    0.216886   -0.816355
H     -3.485986   -0.357420    0.792512
H     -2.084288   -2.156251    1.190820
H     -0.358537   -2.128293    0.849484
H      1.930191    1.883880   -0.423491
H      4.039555    1.013961   -1.337722
H      3.517009   -0.619440   -0.846904
