34

C     -2.897386    0.449901   -1.645026
C     -3.070605    0.381244   -0.123226
C     -1.731115    0.549350    0.555922
O     -1.347774    1.706151    0.883569
N     -0.843804   -0.570616    0.750630
C     -1.272308   -1.959984    0.729371
C     -0.103488   -2.764389    1.282895
C      1.113685   -1.847779    1.205864
C      0.558020   -0.424246    1.123324
C      1.313306    0.395377    0.108160
O      1.067207    0.250725   -1.121108
N      2.340595    1.300238    0.536799
C      3.135980    2.083368   -0.404856
C      4.115102    1.201473   -1.110795
O      5.138554    0.785173   -0.504649
O      3.878132    0.812820   -2.425745
N     -4.014221    1.400700    0.344955
H     -2.473380    1.431445   -1.947915
H     -3.878951    0.312774   -2.146298
H     -2.214436   -0.355996   -1.989314
H     -3.492747   -0.613318    0.132178
H     -1.498280   -2.265535   -0.314977
H     -2.167336   -2.103179    1.372901
H     -0.301308   -3.026578    2.345758
H      0.055109   -3.698826    0.701836
H      1.701421   -2.109376    0.296896
H      1.765419   -1.972106    2.098104
H      0.613240    0.058297    2.124311
H      2.525222    1.414579    1.559078
H      3.692924    2.871297    0.146818
H      2.469760    2.588423   -1.137088
H      4.525000    0.203266   -2.911686
H     -3.739976    2.336094   -0.036656
H     -4.961563    1.179234   -0.039818
