31

C     -0.364149   -0.800338   -0.229543
C      0.306974    0.569708   -0.034639
O     -0.179832    1.189090    1.156190
C     -1.533919    1.146067    1.497962
O     -1.918867    1.746085    2.534664
C     -2.457015    0.302567    0.696189
C     -1.867398   -0.668022   -0.148460
C     -2.678523   -1.571656   -0.848986
C     -4.066242   -1.498010   -0.745262
C     -4.657823   -0.514475    0.046310
C     -3.872408    0.404896    0.751222
O     -4.537312    1.409391    1.457943
C      1.807938    0.426153    0.031142
C      2.594165    0.695674   -1.102005
C      3.982136    0.533768   -1.053812
C      4.599000    0.090283    0.123510
C      3.820600   -0.193174    1.249929
C      2.432571   -0.032193    1.204864
O      5.980959   -0.074396    0.182981
H     -0.031027   -1.505909    0.562427
H     -0.064748   -1.213663   -1.218100
H      0.029968    1.220747   -0.894584
H     -2.234599   -2.339393   -1.470747
H     -4.686406   -2.199171   -1.288768
H     -5.737643   -0.451573    0.096564
H     -4.085017    2.235740    1.821290
H      2.133621    1.030019   -2.023384
H      4.576430    0.749702   -1.932542
H      4.291463   -0.542279    2.160129
H      1.844763   -0.267242    2.083552
H      6.572340    0.121607   -0.616231
