19

C     -1.733851    0.892359   -0.666577
C     -1.210749   -0.164748    0.308974
C      0.286345   -0.518538    0.095156
C      0.678246   -1.669025    1.047203
C      1.154887    0.698689    0.397402
O      1.410470    0.986234    1.599048
C      1.663043    1.608702   -0.650932
O      1.338152    1.462056   -1.858484
O      2.501144    2.659869   -0.299751
O      0.508048   -0.947683   -1.229150
H     -1.584764    0.565444   -1.717081
H     -1.221853    1.863468   -0.504102
H     -2.820943    1.043064   -0.497942
H     -1.367764    0.201689    1.347642
H     -1.829834   -1.080826    0.186722
H      0.086557   -2.582135    0.821266
H      1.755161   -1.916406    0.927476
H      0.490794   -1.393502    2.107636
H     -0.103091   -1.708711   -1.414506
