32

C     -2.686702   -1.673659   -0.171469
C     -4.064453   -1.492556   -0.017056
C     -4.578281   -0.231319    0.298689
C     -3.706881    0.853640    0.458857
C     -2.328963    0.676381    0.304920
C     -1.803394   -0.592453   -0.005838
C     -0.309950   -0.793108   -0.195149
C      0.175243   -0.086862   -1.479864
O      1.601151   -0.135316   -1.572893
C      2.420178    0.142091   -0.473854
C      1.889978    0.099645    0.826859
C      0.483170   -0.318271    1.004560
O     -0.020756   -0.373532    2.160342
C      2.715125    0.406446    1.921558
C      4.058596    0.735930    1.716442
C      4.589973    0.755236    0.419282
C      3.769063    0.453962   -0.672649
O      5.929221    1.073245    0.205388
O     -0.386085   -0.709795   -2.603170
O     -5.953255   -0.066577    0.449607
H     -2.310798   -2.657904   -0.421544
H     -4.734075   -2.333586   -0.144933
H     -4.096015    1.834321    0.701309
H     -1.670704    1.526892    0.431234
H     -0.089766   -1.878618   -0.303776
H     -0.135762    0.983212   -1.453173
H      2.327068    0.379789    2.932040
H      4.687770    0.967680    2.566393
H      4.175571    0.474359   -1.676008
H      6.549741    1.296590    0.974776
H     -0.139423   -0.150463   -3.385118
H     -6.356587    0.834602    0.677842
