50

C      5.018552    0.621466    0.595424
C      4.381760    0.095184   -0.655917
C      3.106264   -0.333353   -0.710054
C      2.130247   -0.324094    0.456016
C      1.571253   -1.761338    0.458185
C      0.607323   -1.902027   -0.770139
C     -0.849610   -1.690182   -0.225357
C     -1.243481   -0.194299   -0.105118
C     -0.925106    0.523995   -1.402215
C      0.570712    0.473489   -1.383224
C      0.990671    0.703825    0.109166
C     -0.335786    0.509240    0.922909
O     -0.891126    1.774602    1.282095
C     -0.374185    2.573032    2.306852
O      0.611119    2.185709    2.992157
C     -1.031507    3.873267    2.621963
N      0.992720   -0.887005   -1.825145
C      2.472879   -0.826806   -2.010310
O      2.966853   -2.097144   -2.350074
C     -2.726239   -0.326952    0.023845
C     -3.690966    0.594965    0.435133
C     -5.045003    0.249954    0.288228
C     -5.409604   -0.981610   -0.293485
C     -4.423511   -1.876569   -0.741555
C     -3.085418   -1.517580   -0.586322
N     -1.950736   -2.299643   -0.963059
H      6.062250    0.932608    0.380539
H      5.038940   -0.169913    1.373944
H      4.455600    1.503194    0.967671
H      4.985065    0.070134   -1.558995
H      2.600207   -0.088333    1.433544
H      1.106499   -1.988200    1.440442
H      2.398763   -2.502195    0.369359
H      0.686768   -2.929421   -1.186878
H     -0.914748   -2.150037    0.789522
H     -1.342246    0.021810   -2.304813
H     -1.283169    1.578519   -1.376159
H      0.975115    1.265883   -2.054595
H      1.382079    1.737589    0.233880
H     -0.201443   -0.103669    1.840919
H     -0.298473    4.576249    3.071393
H     -1.862381    3.702087    3.338239
H     -1.438556    4.324119    1.691899
H      2.703887   -0.111284   -2.835280
H      3.883929   -1.963888   -2.705639
H     -3.412205    1.556130    0.844349
H     -5.813430    0.940609    0.610462
H     -6.455872   -1.235014   -0.404252
H     -4.696458   -2.819720   -1.197086
H     -1.998196   -3.307382   -1.232467
