49

C      2.752580   -1.033262    0.981065
C      2.444486    0.383210    0.394877
C      1.643950    1.219798    1.415124
C      0.228444    0.632482    1.631071
C     -0.560181    0.405805    0.298784
C      0.290149   -0.360673   -0.771182
C      1.649482    0.355351   -0.915892
C      2.645047   -0.139645   -1.957737
C      3.993588    0.435432   -1.488499
C      3.753176    1.039931   -0.086572
O      4.829188    0.784724    0.779713
C     -0.461111   -0.380350   -2.112631
C     -1.806617   -1.085773   -1.971186
C     -2.635946   -0.464206   -0.871493
C     -3.960267   -0.327132   -1.068827
C     -4.865097    0.137277   -0.009177
O     -6.094703    0.260982   -0.253819
C     -4.351851    0.389974    1.372972
C     -2.868596    0.772281    1.333223
C     -1.993904   -0.224007    0.503937
C     -1.922887   -1.583645    1.245959
F     -5.071317    1.417484    1.959721
H      3.360572   -1.644918    0.282964
H      1.842568   -1.613942    1.220843
H      3.325229   -0.936931    1.927980
H      1.543025    2.268698    1.057739
H      2.183619    1.254106    2.386509
H     -0.321832    1.349005    2.274589
H      0.312548   -0.310909    2.204402
H     -0.724610    1.426621   -0.119129
H      0.459517   -1.412632   -0.469775
H      1.418064    1.410010   -1.209490
H      2.676029   -1.250987   -1.974067
H      2.384085    0.233573   -2.972076
H      4.348684    1.223083   -2.188198
H      4.754203   -0.375070   -1.448104
H      3.605175    2.142137   -0.185638
H      5.583055    1.348602    0.464980
H      0.137686   -0.924495   -2.874496
H     -0.623877    0.657151   -2.480950
H     -2.327749   -1.033278   -2.952702
H     -1.642803   -2.159834   -1.737157
H     -4.394820   -0.568373   -2.032082
H     -4.493705   -0.525859    1.984346
H     -2.508848    0.832799    2.382179
H     -2.788727    1.792770    0.895948
H     -1.185199   -2.267978    0.782825
H     -1.653927   -1.449061    2.314108
H     -2.905577   -2.100330    1.215839
