16

C     -0.347644    0.478413   -0.801339
C     -1.531335    0.308239    0.162537
C     -1.018568   -0.675772    1.154395
N      0.149039   -1.113826    0.882955
C      0.686496   -0.561205   -0.331199
C      2.030038    0.053412   -0.071237
O      2.980717   -0.149375   -0.872932
O      2.219032    0.877063    1.035158
O     -2.678618   -0.177528   -0.489313
H     -0.643848    0.288107   -1.856484
H      0.045080    1.517665   -0.730232
H     -1.769578    1.267093    0.670747
H     -1.568964   -1.000504    2.030873
H      0.776243   -1.373794   -1.086109
H      3.117846    1.308572    1.214093
H     -2.445936   -1.046559   -0.911911
