46

C      3.746890    1.581175   -2.129181
C      3.144123    2.778300   -1.858302
C      2.132437    2.519908   -0.954175
C      1.483648    3.565956   -0.282957
C      0.314689    3.532486    0.482733
C     -0.128726    4.633180    1.193399
C     -1.398114    4.341002    1.625757
C     -1.688971    3.074489    1.159804
N     -0.632872    2.569466    0.468942
C     -2.957153    2.494326    1.308661
C     -3.292273    1.185305    0.980541
C     -4.628873    0.607976    1.115607
C     -4.517776   -0.675445    0.813423
C     -3.108625   -0.895229    0.501095
N     -2.407087    0.245327    0.615249
C     -2.499036   -2.105795    0.227330
N     -1.169859   -2.211654    0.059582
C     -0.921635   -3.522489   -0.084149
C      0.350936   -4.075133   -0.177141
C      1.548010   -3.353782   -0.294190
C      2.784781   -3.965740   -0.253258
C      3.710786   -2.991720   -0.531553
C      3.008137   -1.816504   -0.727373
N      1.683145   -2.029941   -0.571436
C      3.614826   -0.666564   -1.240624
C      3.086850    0.624422   -1.383062
N      2.075075    1.190857   -0.672999
C     -2.160760   -4.293379    0.007175
C     -3.136276   -3.418926    0.193005
H      4.626011    1.437024   -2.744835
H      3.462810    3.747190   -2.222103
H      1.934459    4.547264   -0.397184
H      0.391304    5.572704    1.331943
H     -2.055280    5.001706    2.176920
H     -0.600485    1.695343   -0.096813
H     -3.740797    3.105196    1.742889
H     -5.537235    1.113992    1.415424
H     -5.317435   -1.404120    0.824917
H      0.419230   -5.156099   -0.125550
H      2.989282   -5.016183   -0.089148
H      4.778069   -3.139020   -0.638971
H      0.929419   -1.343001   -0.784095
H      4.627876   -0.801923   -1.607576
H      1.515161    0.738059    0.082185
H     -2.273116   -5.368141   -0.050525
H     -4.185570   -3.651862    0.316616
