35

C      5.619926    1.602829   -0.491792
C      5.448930    0.247229    0.184107
O      4.188512   -0.327690   -0.154303
C      2.975163    0.097591    0.398043
O      2.946833    1.001836    1.277065
C      1.695661   -0.499568   -0.093639
C      1.197398    0.253361   -1.327923
C     -0.081330   -0.344241   -1.821372
O     -0.060953   -1.182413   -2.763730
O     -1.283549    0.001229   -1.199284
C     -2.537137   -0.554591   -1.583214
C     -3.656425    0.000904   -0.694906
C     -3.750123   -0.690553    0.685441
C     -2.504623   -0.438516    1.548646
C     -5.003771   -0.207812    1.426611
H      4.855480    2.318594   -0.123974
H      5.516168    1.493209   -1.592044
H      6.627650    2.009252   -0.263634
H      6.253325   -0.431424   -0.169794
H      5.544730    0.350329    1.286959
H      0.931387   -0.453919    0.713267
H      1.869035   -1.567908   -0.348279
H      1.964359    0.210931   -2.132691
H      1.020461    1.320773   -1.071842
H     -2.502442   -1.663970   -1.513743
H     -2.744511   -0.275876   -2.639479
H     -3.523291    1.098324   -0.569791
H     -4.617415   -0.154897   -1.233205
H     -3.852842   -1.787811    0.531985
H     -2.290142    0.649176    1.622699
H     -1.623677   -0.958556    1.119813
H     -2.655510   -0.842533    2.572592
H     -4.950663    0.886469    1.613775
H     -5.103142   -0.734098    2.400074
H     -5.913470   -0.425659    0.827326
