24

C     -0.827690   -0.521793   -0.732263
C      0.650901   -0.122504   -1.029017
C      1.577369   -0.026047    0.213302
C      2.975284    0.334154   -0.206885
O      3.715665   -0.526728   -0.754613
O      3.441399    1.631881   -0.020473
O      1.601051   -1.251566    0.897084
O      0.691010    1.064171   -1.786752
C     -1.494725    0.224470    0.461060
C     -2.916496   -0.230311    0.657381
O     -3.790469    0.014782   -0.217547
O     -3.264350   -0.938882    1.803405
O     -1.457773    1.619202    0.292241
O     -0.932355   -1.917965   -0.578614
H     -1.411480   -0.269915   -1.645634
H      1.066683   -0.921082   -1.683634
H      1.201578    0.775901    0.889332
H      4.376040    1.894645   -0.309489
H      1.953178   -1.066886    1.807175
H      0.548610    1.828778   -1.172043
H     -0.940455   -0.017193    1.392547
H     -4.214740   -1.258098    1.948392
H     -1.920691    1.833963   -0.559899
H     -0.627542   -2.152976    0.334945
