37

C     -2.857958   -1.077224    0.971598
C     -3.530287    0.293491    0.926890
C     -3.074337    0.942676   -0.382879
N     -1.927630    0.161171   -0.829300
C     -1.676082   -0.997663    0.014640
C     -1.198738    0.441380   -2.039196
O     -1.632575    1.308576   -2.846524
C      0.097758   -0.254207   -2.342979
N      1.118291    0.105228   -1.360673
C      2.388993   -0.559722   -1.321994
O      2.632782   -1.502158   -2.123753
C      3.434050   -0.167429   -0.307578
C      2.950619   -0.424724    1.136588
C      2.750722   -1.891460    1.395792
O      1.605933   -2.402151    1.273172
O      3.828086   -2.705300    1.734392
N      3.803924    1.237361   -0.498414
C     -2.702178    2.388977   -0.175675
O     -1.604096    2.689000    0.365720
O     -3.583408    3.404226   -0.537045
H     -2.524155   -1.332292    2.001684
H     -3.573402   -1.851386    0.620618
H     -4.638284    0.195531    0.960035
H     -3.199945    0.882204    1.813016
H     -3.882269    0.861761   -1.142604
H     -0.728537   -0.851902    0.578543
H     -1.617574   -1.925509   -0.597399
H      0.454501    0.033677   -3.355258
H     -0.065969   -1.351894   -2.339202
H      0.930050    0.879274   -0.682744
H      4.345162   -0.785488   -0.483675
H      2.004216    0.123531    1.339815
H      3.711067   -0.041109    1.851118
H      4.761248   -2.323221    1.831518
H      3.032734    1.855887   -0.154426
H      4.646981    1.443058    0.088148
H     -4.479694    3.197828   -0.960877
