47

C     -5.426966    2.914383   -1.213884
C     -5.329195    1.802205   -2.264768
C     -4.478784    0.654474   -1.773322
C     -3.153373    0.784192   -1.606795
C     -2.307026   -0.362845   -1.124793
C     -2.538543   -0.628427    0.367136
C     -1.626441   -1.765055    0.845648
C     -0.181442   -1.573571    0.417409
C      0.100185   -0.717844   -0.666525
O     -0.931521   -0.058614   -1.345402
C      1.415382   -0.491095   -1.061886
C      2.477612   -1.138262   -0.420680
C      2.212092   -2.058856    0.612691
C      0.880299   -2.259262    1.061410
C      0.585344   -3.164999    2.195132
O      1.320203   -3.188712    3.217459
O      3.285627   -2.782510    1.143725
C      3.892628   -0.885230   -0.886795
C      4.737352   -0.271024    0.203674
C      4.636469    1.012125    0.618117
C      3.670688    1.984048   -0.011944
C      5.557552    1.523392    1.695279
O     -6.611658    1.346675   -2.615685
H     -5.843208    2.517681   -0.263060
H     -4.424810    3.349363   -1.014480
H     -6.090606    3.723705   -1.585199
H     -4.859674    2.224052   -3.179986
H     -4.950818   -0.304923   -1.576798
H     -2.672589    1.733179   -1.829528
H     -2.562270   -1.275839   -1.708180
H     -2.313953    0.292535    0.950214
H     -3.598559   -0.909411    0.550009
H     -1.994764   -2.729560    0.433973
H     -1.699087   -1.807710    1.953473
H      1.606618    0.193185   -1.879821
H     -0.305155   -3.779480    2.180867
H      3.178920   -3.577542    1.758294
H      3.922388   -0.244079   -1.793799
H      4.342344   -1.857756   -1.181264
H      5.478292   -0.918621    0.665139
H      2.627504    1.674999    0.201355
H      3.832874    2.036204   -1.108666
H      3.813025    3.004710    0.401748
H      4.973130    2.093749    2.447788
H      6.080390    0.697474    2.223953
H      6.316719    2.195194    1.242812
H     -7.043193    0.993702   -1.793018
