21

C      2.968888    0.061339    0.875368
C      1.631711   -0.235464    0.277369
N      1.310711   -1.466843    0.007534
C      0.027404   -1.842882   -0.583955
C     -1.088761   -0.909947   -0.091564
C     -0.690721    0.556925   -0.364904
N      0.664615    0.817909    0.130675
C     -1.668266    1.496075    0.282157
O     -1.669509    1.650239    1.533501
O     -2.597296    2.174114   -0.500776
O     -2.314822   -1.231258   -0.701027
H      3.705595   -0.719261    0.588900
H      2.880183    0.090431    1.981216
H      3.337442    1.043749    0.512952
H      0.111516   -1.780658   -1.690825
H     -0.206570   -2.893438   -0.310647
H     -1.198755   -1.059729    1.005841
H     -0.694792    0.739637   -1.462246
H      0.972462    1.807384    0.270112
H     -3.271529    2.802146   -0.079899
H     -2.209506   -1.100468   -1.679782
