27

C      2.525073    0.684436    0.934103
C      1.257547    0.164909    0.253021
C      1.406008   -1.182232   -0.480630
C      0.234503   -1.148444   -1.488142
C     -0.496020    0.171605   -1.131922
C      0.718577    1.054284   -0.849087
C     -1.186600    0.074917    0.275990
C      0.044039    0.070819    1.136305
O      0.057719   -0.064173    2.351011
C     -2.066148    1.310026    0.564208
C     -2.026851   -1.204137    0.484441
H      2.328925    1.668046    1.411795
H      2.858618   -0.033950    1.712564
H      3.338791    0.806489    0.188024
H      2.377301   -1.240865   -1.020192
H      1.319365   -2.043547    0.218328
H      0.628716   -1.088794   -2.527275
H     -0.408874   -2.048822   -1.429917
H     -1.154306    0.547109   -1.944829
H      1.410595    1.139677   -1.720339
H      0.466200    2.079896   -0.502340
H     -1.500262    2.259935    0.489842
H     -2.485761    1.255907    1.591818
H     -2.909682    1.351352   -0.157596
H     -2.738686   -1.335088   -0.358182
H     -1.389925   -2.109320    0.570096
H     -2.608860   -1.140037    1.428906
