22

C     -2.018942    0.107576    1.173487
C     -1.299696    0.262923   -0.185793
C     -1.784523   -0.831632   -1.146400
C      0.223043    0.153572   -0.038198
C      0.802697   -0.875299    0.736121
C      2.191574   -0.998228    0.836170
C      3.025119   -0.113942    0.151099
C      2.471774    0.888502   -0.645832
C      1.083661    1.017314   -0.750763
O     -1.661586    1.507040   -0.740923
H     -1.959782   -0.932425    1.556832
H     -1.574085    0.792461    1.927058
H     -3.094967    0.363330    1.064925
H     -1.546365   -1.842645   -0.750766
H     -1.295726   -0.716103   -2.137941
H     -2.884102   -0.759298   -1.290854
H      0.186978   -1.594723    1.257276
H      2.621954   -1.786865    1.439882
H      4.100169   -0.213108    0.228130
H      3.119558    1.563511   -1.190260
H      0.689749    1.791410   -1.395961
H     -1.396501    2.216630   -0.097288
