22

C      3.017399    0.374036   -0.123053
C      1.935943   -0.472110    0.479552
O      2.257160   -1.336569    1.339909
N      0.556125   -0.329965    0.075866
C      0.213034    0.449645   -1.126189
C     -1.240791    0.219234   -1.554356
C     -2.216053    0.458117   -0.392626
C     -1.736778   -0.130512    0.952219
C     -0.505980   -1.033256    0.812482
H      3.961390    0.264795    0.452208
H      2.719378    1.442798   -0.103582
H      3.201843    0.057587   -1.170488
H      0.871173    0.149681   -1.969957
H      0.369296    1.530676   -0.920941
H     -1.493231    0.897067   -2.398228
H     -1.351032   -0.826265   -1.917525
H     -3.200117    0.016038   -0.661435
H     -2.371894    1.552858   -0.273164
H     -1.480318    0.704103    1.641456
H     -2.561330   -0.707476    1.424457
H     -0.167506   -1.315947    1.832765
H     -0.777712   -1.964535    0.270038
