29

C      3.007713   -1.208204   -0.162650
C      2.103104   -0.036297    0.245763
C      1.547105    0.679891   -1.014623
C      0.127719    1.211815   -0.807892
C     -0.838265    0.044165   -0.520627
C     -0.281173   -0.971886    0.519614
C      0.998171   -0.503750    1.241107
O      0.675176    0.536276    2.128380
C     -2.227053    0.553004   -0.150925
C     -2.434111    1.267249    0.967820
C     -3.405671    0.257788   -1.043333
H      3.498884   -1.645697    0.732635
H      2.417453   -2.000063   -0.671368
H      3.803877   -0.854427   -0.852272
H      2.755816    0.689256    0.781739
H      2.216714    1.525736   -1.283895
H      1.532020   -0.010586   -1.887864
H      0.130010    1.952304    0.020482
H     -0.200433    1.742949   -1.728238
H     -0.925484   -0.514703   -1.479309
H     -1.051033   -1.228211    1.280728
H     -0.046623   -1.925109   -0.004248
H      1.371091   -1.368780    1.840014
H      1.413705    0.593410    2.789733
H     -1.622921    1.507245    1.643821
H     -3.427810    1.624117    1.222486
H     -3.856277    1.209610   -1.396206
H     -3.112565   -0.337050   -1.932924
H     -4.169140   -0.317536   -0.477950
