22

C      0.183499    0.959598   -0.772063
C     -1.324019    0.900611   -0.745777
C     -1.971604   -0.214428   -0.359389
C     -1.213482   -1.397808    0.108349
O     -1.825249   -2.448163    0.439852
C      0.289424   -1.379272    0.146833
C      0.824285    0.059575    0.314734
C      2.364989    0.071308    0.163287
O      2.975138   -0.724066    1.145374
O      0.466902    0.524458    1.597147
O     -3.366394   -0.248290   -0.388070
O     -2.028984    2.025666   -1.178756
H      0.508860    2.013198   -0.629482
H      0.524107    0.637738   -1.780577
H      0.666221   -1.821355   -0.801396
H      0.643364   -2.014256    0.988544
H      2.752451    1.114959    0.220452
H      2.649308   -0.325571   -0.835180
H      3.003187   -0.181879    1.976370
H      0.807574    1.452714    1.691322
H     -3.888395   -1.066756   -0.099382
H     -3.041181    2.062020   -1.202192
