31

C      4.771777   -0.431749    0.433713
C      3.627910    0.178069    1.237326
C      2.688533    0.941727    0.338730
C      1.622788    0.406215   -0.285455
C      1.176616   -1.028156   -0.118276
C      0.117868   -1.389030   -1.140062
C     -1.157964   -0.955223   -1.127683
C     -1.741191   -0.069345   -0.050988
C     -3.174074    0.375703   -0.390288
C     -3.780719    1.124455    0.768703
C     -5.056472    1.520187    0.743808
O     -3.159231    1.218542   -1.514981
O      0.705152   -1.238500    1.186669
H      4.384704   -1.150527   -0.318201
H      5.343354    0.366192   -0.086963
H      5.459557   -0.971614    1.118095
H      4.056264    0.884560    1.980095
H      3.098859   -0.613662    1.806419
H      2.918164    1.986804    0.150823
H      1.057193    1.055481   -0.948930
H      2.055949   -1.684334   -0.306728
H      0.419741   -2.041493   -1.954778
H     -1.802685   -1.282563   -1.938922
H     -1.108588    0.833259    0.084229
H     -1.758387   -0.639488    0.902890
H     -3.802027   -0.528504   -0.578677
H     -3.184276    1.343091    1.650867
H     -5.476656    2.053556    1.590308
H     -5.687729    1.315681   -0.115833
H     -3.273777    0.642261   -2.314911
H      0.659348   -2.221595    1.319067
