42

C     -5.261407    0.905482   -0.840991
N     -3.945405    0.380244   -0.448045
C     -3.404215    1.147102    0.698798
C     -2.285130    0.397679    1.454864
N     -1.724818   -0.685053    0.639390
C     -2.617719   -1.629684   -0.041298
C     -4.033523   -1.057390   -0.140727
C     -0.301774   -0.854295    0.546641
C      0.315898   -1.990638    1.090106
C      1.700580   -2.153159    0.997098
C      2.493127   -1.178069    0.363167
C      1.872124   -0.038105   -0.192228
C      0.478307    0.113473   -0.104944
O     -0.129999    1.239513   -0.666010
C      0.550450    2.079911   -1.593193
N      1.987074    2.075471   -1.330706
N      2.620287    0.935539   -0.792325
C      3.978186    0.828623   -0.866265
C      4.651520   -0.288030   -0.342573
C      3.892055   -1.302526    0.279214
O      4.461903   -2.319188    0.764202
C      6.132807   -0.362603   -0.456790
O      6.769284   -1.349240    0.002126
O      6.838827    0.665269   -1.077447
F     -0.419496   -2.929071    1.737075
H     -5.604091    0.411256   -1.775255
H     -5.192056    1.995019   -1.049954
H     -6.017702    0.735565   -0.042308
H     -4.207491    1.402167    1.427910
H     -2.989606    2.103689    0.312583
H     -2.704814   -0.046550    2.383501
H     -1.494107    1.116373    1.763597
H     -2.640804   -2.596995    0.503146
H     -2.236725   -1.811207   -1.070452
H     -4.575810   -1.601379   -0.946279
H     -4.579783   -1.222060    0.816496
H      2.150167   -3.036303    1.434398
H      0.370056    1.705835   -2.622741
H      0.153902    3.113281   -1.510589
H      2.558961    2.853349   -1.732052
H      4.543318    1.619625   -1.344574
H      7.847642    0.627079   -1.162033
