21

C     -2.530900   -1.526238   -0.465466
C     -1.577822   -0.407219   -0.166085
C     -0.250144   -0.687442    0.194297
C      0.635364    0.354858    0.516061
C      0.183484    1.683146    0.466385
C     -1.142269    1.963302    0.126164
C     -2.023150    0.923255   -0.181106
C      2.068184    0.055353    0.860240
C      2.911637    0.084517   -0.377120
O      3.510743    1.142698   -0.703973
O      3.006534   -1.036828   -1.196093
H     -1.995231   -2.383941   -0.925320
H     -3.317383   -1.192793   -1.175630
H     -3.012455   -1.862649    0.476313
H      0.094118   -1.714613    0.223028
H      0.856861    2.500085    0.694857
H     -1.487928    2.988694    0.100995
H     -3.050091    1.155497   -0.435028
H      2.449667    0.799299    1.593575
H      2.150274   -0.943400    1.341058
H      2.520507   -1.895582   -0.967155
