20

C      3.525843   -0.862780    0.000056
C      2.051311   -0.753739    0.213658
O      1.466052   -1.610879    0.929157
N      1.334213    0.372060   -0.315782
C     -0.099580    0.483360   -0.326473
C     -0.923240   -0.643210   -0.510866
C     -2.318638   -0.503532   -0.541065
C     -2.894218    0.762707   -0.398577
C     -2.082124    1.887804   -0.238125
C     -0.691471    1.750558   -0.209884
O     -3.139838   -1.614979   -0.717443
H      4.054083   -0.220883    0.735229
H      3.858186   -1.914748    0.128680
H      3.784710   -0.531490   -1.027437
H      1.893351    1.194927   -0.636962
H     -0.488854   -1.623026   -0.657632
H     -3.970720    0.875341   -0.421007
H     -2.530560    2.867735   -0.137223
H     -0.073386    2.631066   -0.086556
H     -2.755120   -2.546294   -0.824806
