42

C      2.451321   -2.773628   -0.245090
C      2.222993   -1.291477    0.017966
C      3.327296   -0.413203    0.165857
C      4.650279   -0.911210    0.243707
C      5.736117   -0.051841    0.351337
C      5.533157    1.314128    0.461758
C      4.242430    1.842315    0.482621
C      3.114260    0.992125    0.254508
C      1.803181    1.505744    0.083239
C      0.682809    0.628158   -0.008814
C     -0.652406    1.102998   -0.192536
C     -1.745414    0.191121   -0.242194
C     -1.513937   -1.166240    0.073326
C     -0.202647   -1.625799    0.230565
C      0.903792   -0.769514    0.079177
C     -2.593729   -2.064011    0.182843
C     -3.902748   -1.629314   -0.052970
C     -4.142331   -0.308405   -0.463341
C     -3.056346    0.582908   -0.629448
O     -3.257101    1.816128   -1.258174
C     -5.535403    0.129303   -0.709042
O     -6.303115   -0.581436   -1.411719
N     -6.033220    1.334809   -0.126129
O     -4.977087   -2.507427    0.115620
O     -2.372119   -3.394841    0.530840
O     -0.882483    2.476327   -0.290012
O      1.640435    2.887352   -0.018543
O      4.139657    3.201418    0.788075
H      3.315476   -2.934545   -0.920836
H      2.611945   -3.309489    0.713594
H      1.610716   -3.237256   -0.799312
H      4.871282   -1.968275    0.240221
H      6.741367   -0.452091    0.389785
H      6.386380    1.966424    0.601311
H     -0.048973   -2.667710    0.474283
H     -4.129341    2.088037   -1.692771
H     -5.438761    1.902680    0.517776
H     -7.012770    1.644237   -0.312862
H     -4.853498   -3.467788    0.412779
H     -1.721284    2.922862    0.056715
H      1.019284    3.401603    0.593324
H      3.370535    3.594825    1.312565
