48

C     -2.037149   -1.454389    2.355794
O     -1.630130   -1.232524    1.009294
C     -2.418164   -0.627996    0.018707
C     -1.903090   -0.461800   -1.294281
C     -2.723227    0.081280   -2.292143
C     -4.024150    0.496422   -2.007874
C     -4.530747    0.360477   -0.701958
C     -3.732461   -0.198835    0.302026
C     -5.837939    0.788318   -0.445697
C     -6.595808    1.332908   -1.481791
C     -6.025864    1.436179   -2.754936
O     -6.692611    1.924171   -3.704533
O     -4.780047    1.021067   -2.969849
O     -0.600263   -0.826277   -1.685899
C      0.558648   -0.966284   -0.856221
C      1.706998   -1.506063   -1.728011
O      1.317403   -2.689696   -2.371415
C      0.911981    0.393272   -0.201116
C      2.064769    0.263047    0.778058
C      3.394494    0.495425    0.379087
C      4.456236    0.338023    1.291863
C      4.178474   -0.057500    2.607573
C      2.857518   -0.297929    3.005164
C      1.809543   -0.143430    2.096690
O      5.224439   -0.212663    3.515803
O      5.793874    0.561316    0.929220
C      6.221781    0.957383   -0.369878
O      1.190924    1.347830   -1.195154
H     -1.213153   -1.954250    2.904778
H     -2.257763   -0.485871    2.852100
H     -2.930177   -2.113781    2.382043
H     -2.336351    0.194814   -3.297622
H     -4.143418   -0.306037    1.297315
H     -6.268794    0.701618    0.544581
H     -7.609165    1.668288   -1.298429
H      0.377105   -1.730641   -0.073925
H      2.613314   -1.698655   -1.111597
H      1.975182   -0.759769   -2.505514
H      1.327011   -3.404698   -1.682508
H      0.019455    0.739308    0.368405
H      3.596721    0.787685   -0.642063
H      2.641991   -0.608051    4.019761
H      0.796413   -0.340021    2.422644
H      5.057351   -0.498269    4.473633
H      5.934247    0.188240   -1.117610
H      7.326279    1.059284   -0.372209
H      5.773864    1.937771   -0.637173
H      1.164455    2.237853   -0.755136
