48

C     -0.642240   -1.557439    1.033631
C     -0.278921   -1.804681   -0.438357
C     -0.651494   -0.605424   -1.343894
C     -2.170282   -0.333396   -1.423894
C     -2.598268    0.853107   -0.540908
C     -4.074123    1.249421   -0.736612
C     -5.101073    0.194676   -0.261430
C     -5.015872   -0.073648    1.247750
C     -6.495151    0.640531   -0.626590
O     -7.166180   -0.027396   -1.457128
O     -7.056767    1.787271   -0.068478
C      1.217353   -2.136055   -0.571780
O      2.011768   -1.041057   -0.123151
C      3.409550   -1.067297   -0.123990
O      4.023278   -2.101018   -0.506882
C      4.157808    0.102573    0.388939
C      3.584380    0.835826    1.443871
C      4.279927    1.885556    2.044312
C      5.557896    2.219517    1.602590
C      6.136563    1.521068    0.542391
C      5.444480    0.474102   -0.093371
C      6.070417   -0.146408   -1.283799
O      5.363443   -0.541903   -2.249417
O      7.456932   -0.242117   -1.368305
H     -1.743710   -1.534655    1.159603
H     -0.255995   -2.381347    1.670987
H     -0.211842   -0.597586    1.391453
H     -0.843868   -2.698279   -0.786020
H     -0.100762    0.304997   -1.019266
H     -0.297840   -0.832786   -2.374041
H     -2.429404   -0.092760   -2.478498
H     -2.735747   -1.247964   -1.149629
H     -1.981675    1.736668   -0.816460
H     -2.393945    0.644863    0.527832
H     -4.241886    1.462686   -1.815745
H     -4.247448    2.202044   -0.189851
H     -4.908449   -0.764235   -0.787924
H     -5.048571    0.874640    1.825126
H     -5.860562   -0.719492    1.571152
H     -4.077637   -0.611564    1.493492
H     -6.551805    2.355726    0.600074
H      1.454957   -3.040012    0.031223
H      1.458821   -2.360919   -1.633860
H      2.605161    0.575649    1.827796
H      3.831343    2.432953    2.863234
H      6.097524    3.030710    2.074271
H      7.118234    1.822397    0.197171
H      7.901680   -0.647546   -2.183312
