39

C     -4.496228   -1.599621    0.828763
C     -3.114548   -1.011426    0.690984
C     -1.991527   -1.850010    0.812293
C     -0.691157   -1.300513    0.713573
C     -0.531044    0.066915    0.401283
C     -1.656440    0.895488    0.215406
C     -2.946484    0.347012    0.355953
O     -4.068330    1.158218    0.161135
C     -4.695777    1.259353   -1.111558
C     -1.510562    2.336104   -0.115672
O     -0.381709    2.889710   -0.193209
O      0.760148    0.601683    0.256489
C      1.944895   -0.081669    0.676142
C      1.836731   -1.580738    0.373343
C      0.545553   -2.089287    0.935797
O      0.547659   -3.125289    1.648800
C      3.147878    0.519717   -0.006829
C      4.298983    0.843486    0.729211
C      5.417850    1.383934    0.089139
C      5.400296    1.596551   -1.293342
C      4.267091    1.262286   -2.036113
C      3.145623    0.724028   -1.398392
O     -2.207813   -3.221496    0.991452
H     -4.775085   -2.115023   -0.114425
H     -5.253432   -0.825412    1.058404
H     -4.523724   -2.333886    1.661221
H     -5.097291    0.269712   -1.417912
H     -5.530204    1.985489   -1.048971
H     -3.967859    1.614691   -1.874501
H     -2.386142    2.945340   -0.291901
H      2.034842    0.044479    1.779636
H      1.838884   -1.758619   -0.723545
H      2.699034   -2.120440    0.824274
H      4.333232    0.674004    1.793734
H      6.302149    1.630130    0.661469
H      6.267822    2.012202   -1.789222
H      4.256413    1.420078   -3.109135
H      2.278004    0.461124   -1.990426
H     -1.497733   -3.928306    0.856648
