49

C     -2.664659   -1.491979   -0.986274
C     -2.365012    0.008389   -0.656187
C     -1.534282    0.636697   -1.798234
C     -0.097921    0.052821   -1.844121
C      0.623025    0.148530   -0.464311
C     -0.242148   -0.483511    0.680994
C     -1.613564    0.227389    0.670474
C     -2.648263   -0.088448    1.745591
C     -3.981549    0.374873    1.128995
C     -3.686425    0.736702   -0.344107
O     -4.731583    0.340727   -1.195051
C      0.478247   -0.445859    2.059335
C      1.726223    0.439710    2.075062
C      2.758200    0.107453    0.954124
C      2.098071   -0.386674   -0.409534
C      2.878627    0.051575   -1.652385
C      4.052847    0.680773   -1.617903
C      4.592088    1.184495   -0.363127
O      5.787415    1.575466   -0.294191
C      3.673627    1.341400    0.795144
C      2.134902   -1.939067   -0.452497
H     -3.248844   -1.565618   -1.928095
H     -1.753911   -2.098118   -1.144491
H     -3.256994   -1.982760   -0.187133
H     -1.464548    1.737940   -1.655452
H     -2.035778    0.464015   -2.775254
H      0.458406    0.645245   -2.600243
H     -0.119002   -0.994644   -2.204609
H      0.693484    1.244718   -0.273642
H     -0.412228   -1.555622    0.463609
H     -1.398833    1.318872    0.785470
H     -2.441846    0.468377    2.685116
H     -2.669499   -1.178450    1.963247
H     -4.730830   -0.444419    1.195284
H     -4.376677    1.263274    1.668223
H     -3.534475    1.839805   -0.425838
H     -5.493144    0.948765   -1.006263
H      0.780059   -1.474740    2.351939
H     -0.200405   -0.095901    2.863264
H      2.221724    0.345731    3.066385
H      1.380056    1.494186    1.993099
H      3.410795   -0.706820    1.345327
H      2.540127   -0.297122   -2.620797
H      4.606980    0.833581   -2.535953
H      3.065683    2.255063    0.615957
H      4.263132    1.493469    1.726463
H      1.563713   -2.333114   -1.318802
H      1.731437   -2.399702    0.469553
H      3.183554   -2.297477   -0.548161
