36

C      3.548054   -0.608834   -2.354957
C      3.734220   -0.478799   -0.841181
C      4.131593    0.920422   -0.465641
O      5.093966    1.112092    0.323554
O      3.419657    2.010946   -0.952687
C      2.474066   -0.861707   -0.122256
O      2.472035   -1.864323    0.643366
O      1.307245   -0.111579   -0.321387
C      0.067726   -0.367462    0.345942
C      0.167514    0.136881    1.803051
C      0.283813    1.629195    1.905274
O      1.296342    2.219648    1.445327
O     -0.716498    2.367029    2.524678
C     -1.065768    0.280232   -0.509925
N     -2.492922   -0.082711   -0.201307
C     -3.046756    0.766308    0.881974
C     -3.302325    0.176942   -1.420345
C     -2.656175   -1.511699    0.156855
H      2.731260    0.053458   -2.715458
H      3.296391   -1.658783   -2.617608
H      4.488870   -0.335448   -2.879111
H      4.549893   -1.174583   -0.540244
H     -0.075423   -1.467916    0.363670
H     -0.681041   -0.233776    2.406990
H      1.067885   -0.305872    2.278680
H     -0.936720    1.385864   -0.512041
H     -0.831554   -0.025251   -1.556791
H     -2.607506    0.528395    1.865826
H     -4.143258    0.608353    0.994772
H     -2.883064    1.846858    0.672903
H     -3.201569    1.236641   -1.747866
H     -2.980990   -0.474881   -2.264111
H     -4.384004   -0.022901   -1.245438
H     -2.188912   -2.168700   -0.610309
H     -2.203452   -1.737654    1.146310
H     -3.732594   -1.786384    0.232278
