40

C      7.983401    0.055113   -0.973833
C      6.659021   -0.687692   -0.899984
O      5.621297    0.220625   -0.545705
C      4.288640   -0.175518   -0.403720
O      3.960700   -1.382431   -0.573351
N      3.305870    0.799541   -0.033510
C      1.893988    0.529319   -0.004226
C      1.089984    1.004238    1.055357
C     -0.295890    0.780422    1.030175
C     -0.896118    0.086370   -0.036794
C     -0.088399   -0.377676   -1.083261
C      1.289036   -0.155060   -1.070681
N     -2.315093   -0.157434   -0.082331
C     -3.241840    0.287975    0.960398
C     -4.652438   -0.116285    0.624968
C     -5.465218    0.726614   -0.150942
C     -6.762775    0.333278   -0.493549
C     -7.252821   -0.907182   -0.074479
C     -6.443446   -1.758085    0.684061
C     -5.145367   -1.368176    1.028599
F     -8.510389   -1.287612   -0.409091
N      1.665765    1.682793    2.179647
H      8.219553    0.508513    0.012144
H      7.926388    0.857003   -1.740128
H      8.794601   -0.651062   -1.249997
H      6.437779   -1.143061   -1.889719
H      6.731304   -1.491907   -0.135867
H      3.644806    1.747556    0.244126
H     -0.895632    1.145611    1.852737
H     -0.529225   -0.906595   -1.919042
H      1.881884   -0.496592   -1.909494
H     -2.697714   -0.679819   -0.904486
H     -2.946886   -0.159544    1.934471
H     -3.184167    1.393795    1.060079
H     -5.094017    1.685672   -0.490599
H     -7.386214    0.989308   -1.087341
H     -6.819558   -2.721865    1.002351
H     -4.525005   -2.040951    1.607801
H      1.056456    2.067482    2.935787
H      2.697739    1.763320    2.308546
