35

C      5.413280   -0.234365   -1.282039
C      3.966256    0.078612   -1.041151
C      3.114356    0.358469   -2.119407
C      1.758017    0.613203   -1.897719
C      1.229005    0.577458   -0.602503
C      2.081522    0.282386    0.478883
C      3.438423    0.027756    0.257310
O     -0.140651    0.836359   -0.438830
C     -0.853086    0.750437    0.797185
C     -2.300814    1.273965    0.605644
C     -3.272876    0.448379    1.452777
C     -3.198095   -1.025411    1.025321
C     -1.723305   -1.470816    0.771465
O     -0.776699   -0.570336    1.329217
C     -1.409815   -1.782691   -0.674162
O     -1.974148   -1.161004   -1.613460
O     -0.435416   -2.726341   -0.974048
O     -3.777115   -1.812334    2.035538
O     -4.587391    0.914133    1.280464
O     -2.381414    2.626122    0.977466
H      5.532075   -1.325330   -1.448543
H      6.030178    0.068430   -0.409220
H      5.789145    0.311449   -2.173600
H      3.499507    0.379892   -3.131456
H      1.111654    0.832482   -2.738182
H      1.709090    0.245635    1.492827
H      4.077800   -0.207712    1.099291
H     -0.352927    1.420078    1.531040
H     -2.603503    1.170621   -0.463339
H     -2.976991    0.528569    2.527342
H     -3.800938   -1.143619    0.093469
H     -1.576802   -2.434113    1.307029
H     -3.989827   -2.692404    1.627441
H     -4.697953    1.697902    1.879775
H     -1.920542    3.144139    0.266645
