33

C      5.675075   -0.050987    0.428615
C      5.052967    0.992521    1.119443
C      3.658376    1.088417    1.141968
C      2.873520    0.137652    0.468739
C      3.506175   -0.918271   -0.226298
C      4.906519   -1.006020   -0.242918
C      2.716875   -1.866697   -0.882438
C      1.327871   -1.756260   -0.849528
C      0.725720   -0.688117   -0.168685
N      1.510360    0.223361    0.486161
C     -0.754251   -0.604550   -0.151492
C     -1.428332    0.540308    0.025919
C     -2.907209    0.601364    0.052466
C     -3.520763    1.445463    0.992863
C     -4.913029    1.539680    1.061094
C     -5.708089    0.803255    0.182118
C     -5.112884   -0.018691   -0.776955
C     -3.715378   -0.115672   -0.859788
O     -3.137914   -0.895564   -1.861709
H      6.755120   -0.120484    0.414821
H      5.652901    1.728679    1.638743
H      3.192015    1.903328    1.681691
H      5.403879   -1.810468   -0.771574
H      3.172029   -2.690973   -1.418600
H      0.724543   -2.495293   -1.362935
H      1.068254    0.990003    1.040208
H     -1.304194   -1.523778   -0.310939
H     -0.896779    1.464500    0.206850
H     -2.919573    2.020967    1.686627
H     -5.375834    2.183878    1.797561
H     -6.786533    0.877297    0.237087
H     -5.739025   -0.570219   -1.466761
H     -3.702410   -1.408630   -2.528746
