47

C      5.689268    0.373375    0.264863
C      5.040310   -1.007179    0.083470
C      3.655114   -1.134705    0.766202
C      2.438339   -0.573675    0.002817
C      2.412686    0.960882   -0.078535
C      1.010289    1.468897   -0.345381
C      0.123245    1.498549    0.675035
C     -1.312976    1.952940    0.566461
C     -2.268568    0.781542    0.833484
C     -3.407136    1.013775    1.760846
O     -2.234976    0.327595    2.162748
C     -4.621112    0.063491    1.712417
C     -4.749309   -0.745814    0.430942
C     -3.707922   -0.958405   -0.386500
C     -2.401839   -0.340358   -0.148930
O     -1.392018   -0.763602   -0.770670
C     -6.070116   -1.404026    0.120868
O     -5.957077   -2.797617    0.236109
O     -4.575732   -0.804977    2.816466
C      0.649278    1.942838   -1.733849
C      5.013550   -1.428282   -1.360997
O      5.217223   -2.634678   -1.664212
O      4.720669   -0.506030   -2.361867
H      5.624763    0.696847    1.327336
H      6.764292    0.317997   -0.011095
H      5.220262    1.146686   -0.373363
H      5.709153   -1.717737    0.618305
H      3.692771   -0.685755    1.782740
H      3.461996   -2.219503    0.922707
H      2.377799   -1.006184   -1.018862
H      1.532831   -0.925796    0.546273
H      2.790873    1.411735    0.865810
H      3.084987    1.288886   -0.896068
H      0.444476    1.149146    1.654344
H     -1.467476    2.761924    1.312806
H     -1.554610    2.387252   -0.424291
H     -3.491596    1.977331    2.307435
H     -5.519746    0.720502    1.790315
H     -3.817743   -1.605501   -1.250663
H     -6.848638   -1.060921    0.834381
H     -6.412865   -1.107556   -0.898899
H     -5.709379   -3.142491   -0.660344
H     -5.512078   -1.070924    3.017691
H      1.493054    1.803294   -2.442991
H      0.394381    3.022894   -1.711531
H     -0.213293    1.361917   -2.122995
H      4.684597   -0.788580   -3.332870
