48

C     -2.897063   -1.428009    0.855280
C     -2.719084   -0.333499   -0.234165
C     -2.020705   -0.902623   -1.483704
C     -0.548572   -1.271476   -1.165058
C      0.257057   -0.121644   -0.467168
C     -0.525888    0.538066    0.720713
C     -1.932308    0.905323    0.212300
C     -2.899288    1.699725    1.092681
C     -4.252357    1.519296    0.381571
C     -4.059323    0.287042   -0.449521
O     -4.925517   -0.185494   -1.169434
C      0.229260    1.786599    1.202579
C      1.626468    1.420187    1.696912
C      2.405702    0.653527    0.651283
C      3.731412    0.871066    0.561440
C      4.601534    0.073337   -0.314511
O      5.832666    0.333342   -0.369347
C      4.054626   -1.080072   -1.095272
C      2.550612   -0.902309   -1.369532
C      1.734811   -0.523923   -0.074767
C      1.747040   -1.735366    0.897278
O      2.362380    0.029558   -2.409520
H     -1.942155   -1.895753    1.161315
H     -3.551606   -2.238845    0.469021
H     -3.374410   -1.018317    1.770435
H     -2.039272   -0.155102   -2.307858
H     -2.558945   -1.806026   -1.844743
H     -0.537921   -2.189604   -0.547287
H     -0.061794   -1.532864   -2.127564
H      0.338104    0.677270   -1.238397
H     -0.617952   -0.152828    1.581298
H     -1.774095    1.562968   -0.680142
H     -2.932920    1.276358    2.119887
H     -2.616990    2.773701    1.144501
H     -5.074920    1.378904    1.114772
H     -4.465654    2.386540   -0.279730
H     -0.323296    2.261644    2.041751
H      0.311359    2.531932    0.380223
H      1.545140    0.796831    2.613498
H      2.148013    2.361837    1.978049
H      4.194025    1.655277    1.149599
H      4.598488   -1.170357   -2.060922
H      4.231999   -2.016354   -0.525157
H      2.186966   -1.881101   -1.749824
H      2.762731   -1.894601    1.317397
H      1.067932   -1.583955    1.758702
H      1.455728   -2.674605    0.383815
H      2.677980    0.914397   -2.090628
