48

C      5.861022    1.653392    1.389812
C      6.123995    0.567773    0.350209
C      5.942658   -0.831745    0.955354
C      6.331611   -1.957802   -0.020055
C      5.407209   -2.081003   -1.241557
C      4.001707   -2.433284   -0.843159
C      3.013007   -1.537021   -0.893280
C      1.650970   -1.886545   -0.458763
C      0.667116   -0.985513   -0.493053
C     -0.695585   -1.333601   -0.056167
C     -1.681247   -0.431412   -0.093497
C     -3.050351   -0.754734    0.370019
C     -4.118756   -0.008464   -0.004158
C     -4.177489    1.052433   -1.025460
O     -3.242879    1.352168   -1.815013
C     -5.546780    1.667590   -1.106032
N     -6.325988    0.884586   -0.148106
C     -5.491344   -0.070158    0.498903
O     -5.906462   -0.818319    1.422924
C     -7.771512    0.973056    0.033855
C     -5.517496    3.146259   -0.701117
O     -4.779661    3.883567   -1.636308
O     -3.190436   -1.854658    1.223467
H      5.989616    2.653197    0.924116
H      6.576361    1.561162    2.234682
H      4.822818    1.572607    1.776950
H      5.416211    0.714648   -0.492247
H      7.161107    0.681399   -0.033622
H      6.594254   -0.920819    1.852210
H      4.893188   -0.964360    1.295990
H      6.325134   -2.923077    0.532436
H      7.373132   -1.793024   -0.372468
H      5.791865   -2.896816   -1.890043
H      5.439094   -1.153061   -1.851477
H      3.812556   -3.429875   -0.460800
H      3.214413   -0.533213   -1.250503
H      1.449435   -2.891680   -0.103958
H      0.870169    0.019856   -0.846493
H     -0.894020   -2.341594    0.290364
H     -1.453135    0.569773   -0.433107
H     -5.964790    1.542528   -2.128815
H     -8.234838   -0.015540   -0.167276
H     -7.997017    1.279887    1.076395
H     -8.207438    1.717241   -0.665183
H     -6.557339    3.539387   -0.664656
H     -5.063280    3.252926    0.310459
H     -4.785242    4.821954   -1.313323
H     -4.075561   -2.260072    1.489697
