48

C      3.981893   -1.170567    2.047433
C      4.685700   -2.083452    1.233337
C      4.368304   -2.211552   -0.129944
C      3.339425   -1.419785   -0.638072
C      2.645484   -0.537286    0.151467
C      2.951902   -0.380011    1.507062
C      1.712140    0.091992   -0.662295
C      1.934901   -0.436461   -1.937513
N      2.913682   -1.366908   -1.909328
C      0.773373    1.227415   -0.277349
C     -0.747329    0.944190   -0.507578
C     -1.390098    0.075955    0.557269
C     -0.789418   -0.855299    1.407638
N     -1.716255   -1.460700    2.183796
C     -2.899086   -0.932082    1.831826
C     -4.154351   -1.254757    2.345635
C     -5.273060   -0.586151    1.816393
C     -5.113848    0.376179    0.795033
C     -3.834588    0.679582    0.294932
C     -2.742777    0.003825    0.842727
C     -1.099709    0.480610   -1.911681
N     -1.324604    1.388551   -2.812057
C     -1.188449   -0.957944   -2.277259
O     -1.632149   -1.298311   -3.407047
O     -0.769216   -1.944523   -1.390113
C      1.194278    2.530546   -0.937433
N      1.522538    2.530673   -2.193884
C      1.185614    3.810829   -0.181836
O      1.840746    4.794854   -0.616828
O      0.460763    3.966978    0.999540
H      4.238481   -1.075863    3.094526
H      5.478788   -2.683947    1.659461
H      4.910792   -2.899691   -0.765270
H      2.419603    0.320903    2.134995
H      1.433236   -0.135077   -2.846623
H      3.283541   -1.908840   -2.721706
H      0.901122    1.373511    0.813327
H     -1.252598    1.928223   -0.376460
H      0.259914   -1.096571    1.449208
H     -1.543948   -2.200406    2.900447
H     -4.266441   -1.997588    3.124773
H     -6.262163   -0.812800    2.192496
H     -5.981766    0.882338    0.392962
H     -3.707855    1.412600   -0.490988
H     -1.568181    1.161695   -3.801970
H     -0.820387   -2.925052   -1.638496
H      1.798878    3.396304   -2.708868
H     -0.156821    3.253871    1.364314
