39

C     -3.648661   -1.877224   -0.634393
C     -2.996223   -0.650402   -0.072533
C     -3.374465   -0.130736    1.131714
C     -2.642125    1.117261    1.662524
C     -1.574380    1.599706    0.619589
C     -2.283328    1.578266   -0.748095
C     -1.882649    0.092751   -0.825093
C     -0.703553    0.398633    0.144838
C     -0.326188   -0.695849    1.188706
C      0.576726    0.842818   -0.639987
C      1.684519    1.460087    0.244201
C      2.640817    0.432776    0.798813
C      3.518787   -0.297515    0.078128
C      4.325088   -1.349888    0.790304
C      3.676868   -0.168491   -1.394438
O      3.551390    0.949490   -1.959222
O      3.997829   -1.276723   -2.175939
H     -3.207976   -2.139037   -1.618892
H     -3.500386   -2.730637    0.060110
H     -4.735998   -1.696291   -0.766836
H     -4.158441   -0.595596    1.721584
H     -2.151197    0.883127    2.630311
H     -3.382111    1.926821    1.837222
H     -1.051383    2.547600    0.866351
H     -3.377622    1.793152   -0.734292
H     -1.775655    2.207317   -1.510319
H     -1.620342   -0.285841   -1.836771
H      0.351251   -1.443625    0.724483
H      0.197236   -0.226504    2.046488
H     -1.172176   -1.268913    1.607597
H      0.967166   -0.032066   -1.201864
H      0.327902    1.593509   -1.417357
H      2.251936    2.224116   -0.326471
H      1.225153    2.007896    1.093400
H      2.598176    0.278288    1.871227
H      4.573079   -1.033247    1.826407
H      5.284583   -1.531417    0.261154
H      3.746307   -2.296452    0.830187
H      4.070043   -2.207163   -1.783061
