31

C     -0.880963    1.053930    4.447474
C     -0.633656    1.238295    2.985810
O      0.267938    2.031937    2.602179
N     -1.402587    0.492924    2.031139
C     -1.151421    0.567028    0.588463
C     -2.420863    0.220910   -0.160094
N     -2.903076    0.993360   -1.067091
C      0.021688   -0.375271    0.212108
C      0.410166   -0.300139   -1.291508
C      1.590559   -1.253078   -1.621643
C      1.913359   -1.300604   -3.128064
O      2.359539   -0.057386   -3.602061
O      2.740384   -0.948746   -0.869309
O      0.763526    1.021575   -1.621083
O     -0.256157   -1.697241    0.610477
H     -1.966687    1.148998    4.658041
H     -0.333791    1.820647    5.036225
H     -0.535609    0.045369    4.756008
H     -2.099866   -0.198064    2.392371
H     -0.863210    1.611848    0.336771
H     -2.932220   -0.711025    0.058456
H     -2.453246    1.885556   -1.318870
H      0.905670   -0.037827    0.796295
H     -0.463363   -0.632044   -1.903251
H      1.281237   -2.284122   -1.344478
H      2.675519   -2.090714   -3.322048
H      0.999218   -1.586329   -3.690905
H      3.341953   -0.030933   -3.462571
H      2.994308   -0.009551   -1.062480
H     -0.030945    1.446867   -2.036930
H     -0.937405   -2.066173   -0.009431
