21

C     -2.694953   -0.462295   -0.072850
C     -1.428872    0.349216   -0.015860
N     -1.498671    1.586865    0.331011
C     -0.094360   -0.286101   -0.344094
C      0.819684   -0.422503    0.904527
C      2.211747    0.067903    0.461570
C      1.924053    0.708074   -0.841620
O      2.772367    1.344587   -1.519851
O      0.626276    0.520483   -1.259085
O      2.720743    1.004539    1.374013
O      0.889164   -1.757916    1.330696
O     -3.550314    0.044651   -1.060045
H     -2.480733   -1.537424   -0.266464
H     -3.206484   -0.401333    0.910800
H     -0.659170    2.181909    0.391916
H     -0.242246   -1.284486   -0.812018
H      0.451841    0.218883    1.741027
H      2.915972   -0.784590    0.318725
H      3.684477    1.112538    1.161185
H      0.010404   -1.966848    1.742838
H     -3.170925   -0.236150   -1.933777
