43

C     -1.786888    1.562534   -2.200551
C     -1.858016    0.706921   -0.946938
C     -3.092398    0.537759   -0.263703
C     -4.308188    0.987200   -0.830240
C     -5.515531    0.822486   -0.160389
C     -5.539635    0.250064    1.103156
C     -4.361150   -0.186451    1.709315
C     -3.127905   -0.131026    0.993933
C     -1.957668   -0.770522    1.464156
C     -0.720875   -0.565677    0.810930
C     -0.690647    0.076888   -0.444496
C      0.609157    0.104256   -1.228109
C      1.517804   -1.087974   -0.878522
C      2.782514   -1.017006   -1.695828
O      2.838253   -1.596049   -2.813741
C      3.923007   -0.203609   -1.233621
C      3.949391    0.298899    0.017285
C      2.841046   -0.011337    0.960561
O      2.784795    0.578371    2.075007
C      1.846814   -1.121356    0.631156
C      0.567894   -0.979876    1.441611
O      0.633071   -1.128676    2.692983
O      2.435235   -2.370334    0.914727
C      5.065767    1.164779    0.466854
O      4.818976    2.205551    1.132938
N      6.424648    0.824364    0.183526
O      4.951810    0.066366   -2.132077
O     -2.056915   -1.690925    2.512030
O     -4.460360   -0.612584    3.036132
H     -2.416700    2.469884   -2.095449
H     -2.119743    0.971529   -3.079186
H     -0.770193    1.960660   -2.388993
H     -4.352710    1.433750   -1.813252
H     -6.437137    1.162170   -0.615741
H     -6.480136    0.177478    1.635094
H      1.130861    1.065897   -1.028905
H      0.394641    0.035180   -2.316858
H      0.977779   -2.025953   -1.145799
H      2.741508   -2.363465    1.860108
H      6.672753   -0.096173   -0.241763
H      7.196449    1.466027    0.471320
H     -1.359451   -2.397608    2.704722
H     -3.691926   -0.572413    3.691765
