33

C     -2.493067    1.489883   -1.648300
C     -3.863772    1.736955   -1.525436
C     -4.578416    1.218481   -0.441143
C     -3.916070    0.446587    0.522482
C     -2.545647    0.197776    0.402386
C     -1.819288    0.726715   -0.679401
C     -0.344848    0.435137   -0.829806
C     -0.114928   -0.990916   -1.366469
C      1.357496   -1.321321   -1.323341
O      1.850324   -2.088233   -2.194647
C      2.189376   -0.801123   -0.210137
C      3.510322   -1.240673    0.026280
C      4.221676   -0.743380    1.128573
C      3.628194    0.178260    2.000044
C      2.322886    0.615280    1.764474
C      1.610095    0.142926    0.659259
O      0.312716    0.612297    0.427167
O      4.327955    0.666645    3.101203
O      4.113688   -2.171158   -0.819630
O     -0.596746   -1.074895   -2.684047
O     -5.943584    1.473099   -0.331861
H     -1.958733    1.892492   -2.499867
H     -4.371907    2.329495   -2.275607
H     -4.462397    0.036546    1.362330
H     -2.051048   -0.408738    1.151006
H      0.107057    1.156958   -1.547819
H     -0.650586   -1.717157   -0.710696
H      5.234255   -1.080102    1.312471
H      1.865245    1.332924    2.433861
H      5.276411    0.370399    3.300103
H      5.059616   -2.498856   -0.662266
H     -0.786860   -2.033283   -2.861208
H     -6.489416    1.110979    0.441331
