12

C      0.900222   -1.052991    0.050277
C     -0.474153   -1.304270    0.018354
N     -1.357969   -0.269622   -0.031014
C     -0.934951    1.024495   -0.050544
C      0.431199    1.317342   -0.019873
C      1.353960    0.268826    0.030928
O      2.589016    0.514045    0.059150
H      1.601768   -1.877208    0.089551
H     -0.835337   -2.324836    0.032982
H     -2.382169   -0.472974   -0.054400
H     -1.657444    1.829899   -0.089927
H      0.765857    2.347294   -0.035485
