48

C      6.808430    2.029626   -2.078822
O      5.606437    1.893766   -1.327586
C      4.481558    1.171283   -1.753533
C      4.439979    0.497094   -2.983932
C      3.308526   -0.229835   -3.375111
C      2.151127   -0.236030   -2.540535
C      2.214893    0.437394   -1.293612
C      3.371008    1.121919   -0.913428
O      1.174679    0.445297   -0.468453
C      0.018633   -0.148014   -0.740936
C     -0.135385   -0.845694   -1.954590
C      0.920561   -0.852503   -2.872784
O      0.735749   -1.403300   -3.989206
O     -1.313668   -1.533162   -2.265945
C     -1.684661   -2.732466   -1.595616
C     -1.073817   -0.028134    0.250722
C     -0.786443   -0.165028    1.613170
C     -1.798709   -0.044224    2.585182
C     -3.127187    0.232928    2.170136
C     -3.410225    0.392772    0.803525
C     -2.382264    0.272261   -0.147005
O     -4.734657    0.674160    0.429375
C     -5.177952    0.843947   -0.913296
O     -4.211954    0.365517    3.058665
C     -4.169569    0.239423    4.475711
O     -1.506317   -0.194291    3.950190
C     -0.215934   -0.472395    4.485005
O      3.409638   -0.935611   -4.578055
H      7.524690    2.654210   -1.506796
H      6.598307    2.527644   -3.048915
H      7.265621    1.032437   -2.251441
H      5.299555    0.504552   -3.640778
H      3.400381    1.635315    0.040115
H     -0.907328   -3.508937   -1.756355
H     -1.808118   -2.555498   -0.507756
H     -2.647317   -3.096585   -2.008918
H      0.231793   -0.380710    1.908335
H     -2.592461    0.425414   -1.196371
H     -6.269322    1.041911   -0.912115
H     -4.660942    1.708959   -1.379753
H     -4.984859   -0.079733   -1.498997
H     -5.191332    0.392156    4.879333
H     -3.506240    1.015740    4.911544
H     -3.833361   -0.779351    4.761674
H      0.156596   -1.444588    4.098739
H     -0.288710   -0.535075    5.590007
H      0.490771    0.342835    4.222071
H      2.809800   -1.697395   -4.854510
