45

C     -3.874923    1.857614   -0.605740
C     -3.122623    0.521070   -0.564766
C     -3.989500   -0.598298    0.060898
C     -3.180348   -1.905731    0.129096
C     -1.809879   -1.642810    0.784957
C     -1.109680   -0.455286    0.095986
O     -1.928828    0.699567    0.179847
O      0.107447   -0.205053    0.773363
C      0.985573    0.590770   -0.010794
C      1.959228   -0.325253   -0.801343
C      3.263047   -0.590991   -0.026250
C      3.907546    0.734871    0.498675
O      3.039379    1.856674    0.397290
C      1.750177    1.575923    0.913182
O      1.838197    1.099051    2.237360
C      5.199991    1.064354   -0.265098
O      6.169663    0.070875   -0.062322
O      2.978005   -1.441785    1.055469
O      2.236789    0.199928   -2.078188
O     -1.002309   -2.793613    0.743002
O     -3.894818   -2.856654    0.875784
O     -5.141435   -0.795435   -0.719188
O     -4.171849    2.292542    0.693161
H     -4.813407    1.749423   -1.194239
H     -3.234997    2.614347   -1.112714
H     -2.884761    0.255847   -1.622304
H     -4.274544   -0.293894    1.096473
H     -3.028837   -2.276857   -0.913189
H     -1.974182   -1.378356    1.853451
H     -0.913980   -0.729838   -0.971256
H      0.429043    1.221663   -0.748171
H      1.465613   -1.307614   -0.970921
H      3.954677   -1.125683   -0.720028
H      4.202409    0.611977    1.566249
H      1.189914    2.540344    0.920164
H      0.978077    1.315543    2.683965
H      5.593894    2.052387    0.066690
H      4.986790    1.140380   -1.352360
H      6.532495    0.209210    0.851392
H      3.844658   -1.820418    1.358274
H      2.572161    1.126420   -1.968131
H     -0.844309   -3.016871   -0.211687
H     -3.526794   -3.746764    0.635212
H     -5.808469   -1.247331   -0.139158
H     -4.654302    3.153754    0.591407
