39

C      4.387985    1.666385    0.634783
C      3.368295    0.556987    0.621065
C      2.525554    0.469939   -0.431941
C      1.445709   -0.576704   -0.573787
C      0.188732   -0.239135    0.257888
C     -0.921295    0.502208   -0.564397
C     -1.627175   -0.249315   -1.725547
C     -1.814819   -1.763727   -1.386628
C     -2.506133   -1.990832    0.010643
C     -2.675792   -0.681372    0.795649
C     -3.107931   -0.679440    2.061043
C     -2.332540    0.614320    0.067591
C     -2.938460    0.450387   -1.335873
C     -0.396650    1.894736   -1.009416
C      3.332473   -0.436051    1.759811
H      5.024735    1.629488    1.543016
H      3.871677    2.649513    0.612201
H      5.047057    1.582044   -0.255236
H      2.633696    1.180704   -1.247117
H      1.845442   -1.569110   -0.274783
H      1.179164   -0.670066   -1.648125
H     -0.163232   -1.183066    0.707974
H      0.455169    0.396095    1.129834
H     -1.257909   -0.031774   -2.751240
H     -2.435409   -2.231994   -2.180962
H     -0.828913   -2.274324   -1.410597
H     -3.510933   -2.439242   -0.145916
H     -1.910015   -2.715586    0.606212
H     -3.348874   -1.611258    2.563066
H     -3.223140    0.251794    2.606748
H     -2.578484    1.565914    0.588850
H     -3.074990    1.420529   -1.861294
H     -3.864522   -0.166403   -1.407807
H      0.361501    1.780575   -1.810919
H     -1.196291    2.552663   -1.406575
H      0.065826    2.425245   -0.150037
H      3.546198   -1.456689    1.379615
H      4.094154   -0.197133    2.530659
H      2.340136   -0.426304    2.253900
