29

C      3.155687    0.867424    0.179778
C      2.102923    0.727592   -0.915319
C      2.055152   -0.680334   -1.451263
C      1.344000   -1.686422   -0.907853
C      0.453199   -1.556670    0.302341
C     -0.811267   -0.797418   -0.014590
C     -1.347449    0.175703    0.718295
C     -2.644487    0.675450    0.134977
C     -2.887260   -0.199280   -1.111972
C     -1.701036   -1.089859   -1.123187
O     -1.506479   -1.994485   -1.977603
O     -2.561679    2.039488   -0.196398
C     -0.766664    0.713367    1.992495
H      2.920987    0.213509    1.043962
H      3.184277    1.919664    0.533049
H      4.158416    0.598866   -0.216152
H      2.375931    1.409904   -1.748582
H      1.111618    1.053558   -0.543103
H      2.641431   -0.894699   -2.340290
H      1.404455   -2.663010   -1.379848
H      1.018466   -1.094701    1.135226
H      0.162075   -2.574396    0.638070
H     -3.463404    0.527082    0.871638
H     -3.815042   -0.800770   -1.001234
H     -2.927155    0.400473   -2.046901
H     -1.790224    2.155453   -0.812108
H     -1.428165    1.498168    2.415465
H     -0.668535   -0.104231    2.737070
H      0.230230    1.160575    1.797909
