41

C      3.800868    0.138338    1.252898
C      4.510040    0.258300   -0.111707
C      3.804706   -0.619561   -1.173391
C      2.295044   -0.771525   -0.864753
C      1.788845    0.426097   -0.026513
O      2.429323    0.523110    1.241902
O      0.398973    0.268728    0.204014
C     -0.361961    1.035622   -0.709172
C     -1.851926    0.705509   -0.554650
C     -2.365070    1.026091    0.873154
C     -3.850611    0.640354    0.987865
C     -4.056219   -0.804799    0.501889
C     -3.417797   -0.990986   -0.892597
O     -2.037034   -0.668896   -0.854633
O     -3.574310   -2.319190   -1.318007
O     -5.422570   -1.136915    0.479916
O     -4.274434    0.743054    2.322915
O     -2.228550    2.399453    1.140692
O      2.058839   -1.961109   -0.153574
O      3.963246   -0.040376   -2.443471
O      5.871430   -0.075734   -0.004015
H      4.333639    0.781155    1.985213
H      3.874705   -0.906672    1.624923
H      4.450974    1.324749   -0.423547
H      4.260177   -1.638181   -1.183439
H      1.723207   -0.799953   -1.822206
H      2.018599    1.369637   -0.581948
H     -0.068242    0.809353   -1.759834
H     -0.203001    2.122513   -0.528674
H     -2.398544    1.339343   -1.292698
H     -1.792774    0.421061    1.617954
H     -4.455089    1.323559    0.343598
H     -3.548008   -1.491437    1.215232
H     -3.941824   -0.346069   -1.635361
H     -3.000348   -2.883212   -0.735979
H     -5.868815   -0.536623   -0.173321
H     -4.435898    1.706337    2.500819
H     -1.359921    2.522191    1.605429
H      2.093687   -2.702578   -0.813118
H      4.908766   -0.186677   -2.709365
H      5.927876   -1.004062    0.344104
