39

C     -1.511229    3.576750   -0.201464
C     -1.386674    2.080136   -0.114724
C     -0.439167    1.460556   -0.848581
C     -0.185412   -0.034435   -0.810979
C     -1.444188   -0.798593   -0.318703
C     -2.017926   -0.140007    0.949303
C     -2.423283    1.309137    0.672097
C     -1.184308   -2.274367   -0.068492
C      0.059500   -2.760247    0.098982
C      1.300189   -1.947055   -0.149604
C      1.081424   -0.424308    0.019537
C      2.353896    0.429583   -0.362459
C      2.482750    1.668141    0.547688
C      3.692048   -0.335207   -0.301808
C     -2.352421   -3.215937    0.069385
H     -1.664614    3.883828   -1.257826
H     -0.585760    4.052184    0.186710
H     -2.372555    3.941107    0.397469
H      0.222487    2.064820   -1.463972
H     -0.003446   -0.343944   -1.865157
H     -2.213484   -0.727981   -1.121266
H     -1.278227   -0.166901    1.777084
H     -2.917873   -0.692521    1.296404
H     -3.373434    1.316237    0.095233
H     -2.609938    1.818340    1.642211
H      0.193208   -3.821060    0.295563
H      1.639736   -2.167198   -1.184515
H      2.075494   -2.301150    0.561980
H      0.872630   -0.256320    1.098375
H      2.249972    0.782170   -1.412070
H      3.305994    2.323185    0.190328
H      2.704291    1.359356    1.592068
H      1.559102    2.275971    0.562807
H      3.861101   -0.755665    0.712537
H      3.721146   -1.149680   -1.054515
H      4.536243    0.347151   -0.540190
H     -2.264772   -4.035348   -0.675115
H     -2.367810   -3.650322    1.091379
H     -3.314689   -2.690407   -0.105700
