47

C     -3.451900    1.165150    1.260430
C     -2.806277   -0.021718    0.533620
C     -1.536951    0.335811   -0.284249
C     -0.442456    1.163292    0.434691
C      0.917850    0.530733    0.000810
C      1.832144    1.396176   -0.904975
C      3.172874    0.787018   -0.663704
C      4.259887    1.063743   -1.393772
C      3.122501   -0.200470    0.468622
C      1.843807    0.236831    1.193125
C      2.956239   -1.637224   -0.108304
C      1.473885   -2.027318   -0.351446
C      0.563902   -0.816333   -0.728194
C     -0.924184   -1.052184   -0.437642
C     -1.702843   -1.829454   -1.530660
C     -3.245862   -1.757653   -1.335336
C     -3.832049   -0.773113   -0.361730
O     -3.748909   -0.497715   -1.741431
O     -1.151893   -1.659968    0.837680
C     -2.240046   -1.056852    1.437234
O     -2.714776   -1.412037    2.548323
O      4.256422   -0.082709    1.291124
C     -0.580936    2.643337    0.174553
O     -0.778425    3.078169   -0.992669
O     -0.450107    3.539647    1.230551
H     -3.731716    1.949294    0.525392
H     -4.369148    0.835728    1.793710
H     -2.761801    1.606179    2.009071
H     -1.767894    0.793178   -1.273036
H     -0.551020    1.018428    1.532443
H      1.879163    2.454208   -0.570370
H      1.542987    1.360325   -1.977498
H      4.208504    1.780771   -2.206987
H      5.205075    0.572701   -1.185651
H      2.024682    1.164176    1.784534
H      1.443814   -0.542226    1.879257
H      3.396350   -2.376612    0.595871
H      3.524032   -1.738371   -1.059748
H      1.102970   -2.514382    0.575090
H      1.419266   -2.795944   -1.152566
H      0.665609   -0.674627   -1.827383
H     -1.454050   -1.433618   -2.539326
H     -1.390427   -2.894780   -1.503112
H     -3.889130   -2.573694   -1.725168
H     -4.862917   -0.991827   -0.011372
H      4.099147   -0.652054    2.089239
H     -0.525391    4.537987    1.076841
