39

C     -2.704157   -3.034238    0.939546
C     -2.132458   -1.662980    0.701426
C     -0.803236   -1.475656    0.836204
C     -0.101317   -0.145022    0.618571
C     -1.099930    1.043696    0.450846
C     -2.380565    0.636534   -0.297056
C     -3.073548   -0.511991    0.433029
C     -0.457141    2.258448   -0.194498
C     -0.839267    3.493444    0.166738
C      0.584345    2.103128   -1.273024
C      0.742717    0.645302   -1.697194
C      1.010272   -0.289847   -0.493927
C      2.451974   -0.135090    0.113479
C      2.783062   -1.311108    1.054656
C      3.561026   -0.045906   -0.952184
H     -2.300616   -3.743881    0.186744
H     -3.811664   -3.026583    0.859099
H     -2.430897   -3.386506    1.956880
H     -0.178201   -2.329362    1.087112
H      0.403010    0.070824    1.584742
H     -1.417466    1.335307    1.480363
H     -3.078630    1.501028   -0.344057
H     -2.165438    0.323903   -1.337453
H     -3.930253   -0.858988   -0.184241
H     -3.475958   -0.147551    1.402978
H     -0.395463    4.370443   -0.295293
H     -1.601535    3.644442    0.925138
H      1.555832    2.497339   -0.905293
H      0.286165    2.697103   -2.164571
H      1.534572    0.564018   -2.468181
H     -0.173334    0.312640   -2.223719
H      0.965175   -1.316611   -0.925323
H      2.492728    0.802617    0.710941
H      2.755614   -2.273362    0.499578
H      3.796623   -1.183114    1.491414
H      2.073897   -1.372968    1.903559
H      3.467255   -0.875186   -1.685749
H      3.521400    0.928844   -1.480927
H      4.565408   -0.103115   -0.480354
