36

C     -0.975315    2.087129    0.432582
C     -2.276303    1.757535    0.056250
C     -2.209675    0.457789   -0.438246
C     -3.151562   -0.466345   -0.911579
N     -2.690440   -1.670019   -1.362434
C     -1.360728   -1.988809   -1.331306
N     -0.453038   -1.110701   -0.818652
C     -0.891153    0.093023   -0.376329
N     -0.129080    1.069824    0.151011
C      1.310758    1.042033    0.427331
C      1.606574    0.204754    1.677471
C      2.378438   -0.975764    1.131319
C      2.920659   -0.438882   -0.188458
O      1.998876    0.503282   -0.682029
C      3.130139   -1.541604   -1.231885
O      4.139144   -2.418025   -0.813049
O      3.416648   -1.363527    1.995763
O      2.386799    0.957348    2.574026
N     -4.559220   -0.241142   -0.833228
C     -3.403162    2.702743    0.045928
O     -3.455275    3.622343    0.905706
O     -4.368153    2.640836   -0.954002
H     -0.662469    3.037986    0.845983
H     -1.029958   -2.951878   -1.694756
H      1.668519    2.086633    0.573827
H      0.666242   -0.136430    2.174098
H      1.666385   -1.818726    0.959773
H      3.891672    0.080306   -0.016332
H      3.428252   -1.072263   -2.196034
H      2.181428   -2.101190   -1.393401
H      4.216276   -3.107939   -1.522209
H      3.630558   -2.308087    1.780418
H      2.286486    0.533998    3.466525
H     -5.215051   -0.896349   -1.313489
H     -4.960963    0.424877   -0.139377
H     -5.132310    3.305241   -0.981216
