44

C      2.670897    0.662926   -1.548883
C      3.127385   -0.653343   -0.892315
C      3.903483   -0.477976    0.439489
C      2.968140   -0.273476    1.638440
C      1.856556   -1.331085    1.625785
C      1.157516   -1.380766    0.247945
O      2.079342   -1.613145   -0.807708
O      0.419480   -0.191696    0.003607
C     -0.925302   -0.284482    0.449193
C     -1.820982   -0.842385   -0.688517
C     -2.371704    0.305723   -1.548877
C     -3.150066    1.337115   -0.664840
O     -2.803455    1.256902    0.715644
C     -1.407247    1.116721    0.912818
O     -0.712117    2.154671    0.258462
C     -4.674775    1.180616   -0.776019
O     -5.307407    2.130271    0.037083
O     -3.172287   -0.202440   -2.588729
O     -2.891401   -1.576979   -0.149877
O      2.410575   -2.587646    1.925508
O      2.421654    1.020875    1.618629
O      4.812506    0.590437    0.358936
H      2.006095    0.444524   -2.412319
H      3.553761    1.222258   -1.928613
H      2.134941    1.324708   -0.842034
H      3.863346   -1.082205   -1.606956
H      4.471507   -1.420655    0.626889
H      3.571691   -0.396280    2.568120
H      1.113866   -1.065284    2.413813
H      0.486840   -2.272184    0.250709
H     -1.018084   -0.957210    1.336360
H     -1.218041   -1.508483   -1.349122
H     -1.499675    0.840232   -1.999256
H     -2.913006    2.361107   -1.034490
H     -1.223778    1.196771    2.010025
H      0.128913    2.308455    0.763822
H     -4.998873    1.338242   -1.829452
H     -4.968086    0.156529   -0.456252
H     -6.276783    1.916123    0.012151
H     -2.559165   -0.604854   -3.259492
H     -2.523224   -2.453025    0.137868
H      1.658343   -3.179755    2.182587
H      2.063788    1.198199    2.527304
H      5.554832    0.291944   -0.228868
