25

C      2.280453    0.857316   -0.378232
C      1.752919   -0.578096   -0.183383
C      0.460928   -0.872527   -1.006395
C     -0.751491    0.068194   -0.722281
C     -1.295015    0.018289    0.733559
C     -2.265896    1.142756    0.989271
O     -3.411308    1.131875    0.462580
O     -1.883741    2.215704    1.788916
O     -1.873394   -1.225353    1.048684
O     -1.782752   -0.152376   -1.655679
O      0.086165   -2.223703   -0.881204
O      2.762633   -1.466052   -0.594251
O      1.577592    1.772426    0.419304
H      3.363695    0.900455   -0.119442
H      2.190276    1.159184   -1.443484
H      1.557835   -0.732914    0.902958
H      0.727639   -0.718942   -2.075643
H     -0.403960    1.105938   -0.905675
H     -0.447730    0.170737    1.431600
H     -2.518177    2.986018    1.962882
H     -2.712685   -1.322596    0.528831
H     -2.018403   -1.115348   -1.638468
H      0.077983   -2.451278    0.084175
H      2.627807   -2.316059   -0.098911
H      1.898628    1.646352    1.350292
