29

C      3.325896    2.146148   -0.038543
O      3.341447    0.841151   -0.608111
C      2.270478   -0.065398   -0.553427
C      2.416951   -1.325109   -1.160771
C      1.364301   -2.243300   -1.129337
C      0.163984   -1.923706   -0.493182
C      0.002051   -0.677331    0.136884
C      1.056468    0.251742    0.088204
C     -1.306529   -0.289421    0.801641
C     -2.282781    0.373527   -0.208229
C     -3.579923    0.839621    0.469092
O     -3.318634    1.857601    1.398975
O     -2.611590   -0.522121   -1.241013
O     -1.882784   -1.384774    1.475506
O      3.601714   -1.681420   -1.804959
H      4.301753    2.637006   -0.231082
H      2.523407    2.756523   -0.504035
H      3.171014    2.082023    1.059234
H      1.476042   -3.209135   -1.605774
H     -0.635771   -2.651525   -0.502874
H      0.922556    1.220747    0.550109
H     -1.070888    0.466478    1.582273
H     -1.790219    1.279767   -0.636743
H     -4.108563   -0.018382    0.946002
H     -4.259679    1.249997   -0.307867
H     -3.207619    1.420280    2.283127
H     -1.913980   -0.430393   -1.941453
H     -2.365419   -1.944955    0.814703
H      4.396318   -1.055641   -1.859232
