22

C     -0.458323    0.039332   -0.128224
C      0.622411   -1.049338   -0.205089
C      1.881799   -0.585653   -0.956842
C      2.665556    0.517944   -0.234821
O      3.104831    0.078046    1.022702
C     -1.751044   -0.514342    0.486487
C     -2.820063    0.570436    0.648223
O     -3.269102    1.015781   -0.604079
H     -0.095166    0.881438    0.498637
H     -0.668566    0.419708   -1.151458
H      0.892437   -1.389451    0.818036
H      0.208518   -1.927656   -0.747486
H      1.597797   -0.226547   -1.969991
H      2.552761   -1.461547   -1.093774
H      3.558207    0.769513   -0.845637
H      2.061241    1.449531   -0.152081
H      2.409641    0.343824    1.679526
H     -1.526958   -0.938876    1.489660
H     -2.153243   -1.331017   -0.152365
H     -2.430276    1.415329    1.262553
H     -3.684620    0.136694    1.193839
H     -2.697838    1.786853   -0.857814
