41

C      6.215911   -0.687687   -0.839532
C      5.176821    0.128167   -0.075776
C      3.800080   -0.545054   -0.121669
C      2.758691    0.282396    0.647374
C      1.378927   -0.400645    0.693707
C      0.579485   -0.262880   -0.616367
C     -0.040303    1.141441   -0.803093
C     -1.561415    1.170095   -0.580358
C     -1.947835    0.932153    0.889101
C     -3.470028    1.048047    1.119788
C     -4.173190   -0.310232    1.305749
C     -4.149168   -1.221277    0.067409
C     -4.968841   -0.663515   -1.095892
H      6.316863   -1.699537   -0.392281
H      7.200564   -0.177018   -0.788159
H      5.921845   -0.785472   -1.906331
H      5.113293    1.142252   -0.527418
H      5.508590    0.233187    0.980281
H      3.873975   -1.558400    0.331042
H      3.488884   -0.654516   -1.181931
H      2.676811    1.295108    0.198181
H      3.112549    0.410166    1.694010
H      0.793413    0.035978    1.530710
H      1.509343   -1.479688    0.928312
H      1.234077   -0.492852   -1.482560
H     -0.215653   -1.040205   -0.628422
H      0.442358    1.895920   -0.145232
H      0.150617    1.469197   -1.848413
H     -1.933628    2.171254   -0.890013
H     -2.043968    0.419355   -1.239473
H     -1.436067    1.699191    1.511329
H     -1.581846   -0.060167    1.227737
H     -3.630800    1.626057    2.056212
H     -3.963197    1.634912    0.315925
H     -5.230142   -0.127304    1.598884
H     -3.695439   -0.849373    2.152826
H     -4.583343   -2.203631    0.353708
H     -3.106090   -1.413012   -0.258674
H     -5.003471   -1.412793   -1.914569
H     -4.510081    0.263291   -1.496508
H     -6.008593   -0.448866   -0.769614
