24

C     -1.997426    0.863584   -0.914442
N     -1.031516   -0.184601   -0.504997
C     -1.640784   -0.993964    0.579768
C     -0.744785   -1.027136   -1.692188
N      0.159939    0.483292   -0.069360
C      1.191094   -0.402013    0.515253
C      2.538518    0.324026    0.578560
C      2.511951    1.457492    1.557175
O      2.644574    1.233636    2.789146
O      2.302165    2.756712    1.112424
H     -1.561737    1.511667   -1.707907
H     -2.269620    1.515321   -0.054085
H     -2.940019    0.419581   -1.307182
H     -1.018792   -1.881291    0.826546
H     -1.767541   -0.386220    1.502839
H     -2.640257   -1.377620    0.275250
H     -1.683629   -1.331290   -2.207389
H     -0.110443   -0.476251   -2.421763
H     -0.231822   -1.973129   -1.420472
H     -0.088549    1.188653    0.667134
H      0.900604   -0.721476    1.541121
H      1.346530   -1.308985   -0.099095
H      3.327446   -0.397104    0.884217
H      2.804100    0.707116   -0.430552
