48

C      6.192801    1.581613    1.029115
C      5.269466    1.993652   -0.117056
C      4.744811    0.792559   -0.918799
C      3.737047   -0.052469   -0.125272
C      3.128606   -1.152391   -1.007939
C      2.266248   -2.152394   -0.215895
C      1.057751   -1.539335    0.515479
C      0.041477   -0.895110   -0.442658
C     -1.196759   -0.350692    0.287647
C     -2.138324   -1.465231    0.777895
C     -3.467091   -0.904848    1.329666
C     -4.663469   -1.097569    0.377726
C     -4.563662   -0.323961   -0.947768
C     -4.672560    1.196402   -0.757296
C     -4.648709    1.920901   -2.102292
O     -4.746460    3.301526   -1.890525
H      5.628012    1.034028    1.811640
H      6.632269    2.489747    1.492923
H      7.019411    0.942463    0.652354
H      4.419388    2.587196    0.284167
H      5.842368    2.651647   -0.805900
H      5.597707    0.157967   -1.245773
H      4.245119    1.182644   -1.832685
H      4.246341   -0.524169    0.741963
H      2.928646    0.611309    0.248980
H      2.535739   -0.697751   -1.829427
H      3.953234   -1.726510   -1.484791
H      2.909734   -2.662352    0.533982
H      1.902517   -2.936599   -0.915209
H      1.398529   -0.796479    1.267165
H      0.564759   -2.362324    1.073439
H      0.523575   -0.037577   -0.957515
H     -0.269325   -1.626746   -1.220229
H     -1.741367    0.308534   -0.419050
H     -0.880120    0.279218    1.147820
H     -1.632908   -2.020049    1.596662
H     -2.329348   -2.194354   -0.039716
H     -3.368297    0.161078    1.625777
H     -3.708570   -1.454640    2.265887
H     -5.593110   -0.792225    0.905909
H     -4.767565   -2.180880    0.149340
H     -5.401849   -0.658779   -1.597531
H     -3.622579   -0.583288   -1.476300
H     -3.826783    1.568315   -0.142312
H     -5.622332    1.438482   -0.231971
H     -5.504316    1.578170   -2.726734
H     -3.696412    1.691224   -2.631580
H     -4.723638    3.720048   -2.790144
