29

C     -4.737858    0.708712    0.011998
C     -3.296829    0.504316    0.391025
C     -2.313988    0.344656   -0.604852
C     -0.956549    0.130515   -0.233873
C     -0.594273    0.227454    1.131413
C     -1.585280    0.436671    2.102881
C     -2.922277    0.555638    1.737639
C      0.828336    0.121541    1.539259
O      1.140777    0.174588    2.760910
C      1.885009   -0.030391    0.515677
C      1.526730   -0.204500   -0.835304
C      0.097009   -0.246915   -1.219808
O     -0.216470   -0.685613   -2.359031
C      2.534350   -0.362370   -1.803990
C      3.880715   -0.340741   -1.434347
C      4.238898   -0.166516   -0.093255
C      3.244707   -0.013527    0.877168
O      5.579193   -0.144477    0.286143
O     -2.717972    0.443293   -1.940441
H     -4.870610    1.729549   -0.403599
H     -5.042267   -0.038587   -0.751073
H     -5.409216    0.590543    0.889255
H     -1.327462    0.505551    3.152406
H     -3.665874    0.711172    2.509765
H      2.281907   -0.498606   -2.848182
H      4.645132   -0.460747   -2.191535
H      3.538312    0.119540    1.911152
H      6.323707   -0.252773   -0.392740
H     -2.087855    0.641537   -2.704660
