25

C      2.182508    0.238382    1.361185
C      2.050835    0.503074   -0.141899
C      2.638449   -0.663333   -0.955430
C      0.589183    0.867969   -0.492714
C     -0.430522   -0.209904   -0.400636
O      0.091181    0.214797   -1.641292
C     -1.883916    0.243570   -0.205088
C     -2.835466   -0.762897   -0.857309
C     -2.184033    0.376523    1.289969
H      1.794679    1.105770    1.937279
H      1.611546   -0.668943    1.652633
H      3.249713    0.091277    1.632605
H      2.665742    1.399753   -0.374972
H      2.108521   -1.614313   -0.739827
H      3.711617   -0.797869   -0.701612
H      2.572619   -0.446245   -2.042644
H      0.245733    1.921921   -0.416615
H     -0.117268   -1.243013   -0.141707
H     -2.053036    1.234962   -0.683754
H     -2.720283   -1.768452   -0.397880
H     -2.621335   -0.839303   -1.944785
H     -3.888224   -0.430134   -0.733916
H     -2.044127   -0.597482    1.806937
H     -3.230091    0.718194    1.442255
H     -1.504025    1.125696    1.749217
