50

C     -6.320611   -0.804296    0.100841
C     -5.158073   -1.760091    0.193185
C     -3.996820   -1.551153   -0.468165
C     -3.716799   -0.368820   -1.364761
C     -2.413426    0.281440   -0.961156
C     -1.204143   -0.113259   -1.566144
C      0.017107    0.467555   -1.172849
C      0.028407    1.455033   -0.166678
C     -1.177614    1.820592    0.457105
C     -2.396971    1.236096    0.073470
O     -3.608460    1.578772    0.698465
C     -3.737697    2.509820    1.767732
O      1.247403    2.065565    0.177076
C      1.405303    3.059926    1.183829
C      1.277621    0.043725   -1.828642
O      1.311800   -0.067924   -3.084997
C      2.476266   -0.274704   -1.023127
C      3.658886   -0.563796   -1.584020
C      4.878038   -0.890559   -0.804915
C      5.908210   -1.608688   -1.435259
C      7.079239   -1.928909   -0.742040
C      7.242133   -1.524852    0.588673
C      6.230654   -0.795661    1.219642
C      5.057281   -0.474051    0.530202
O      8.404364   -1.838519    1.289627
O     -1.213654   -1.102451   -2.547481
C     -5.325199   -2.994607    1.041274
H     -7.185158   -1.174731    0.691652
H     -6.030865    0.188360    0.504324
H     -6.646179   -0.701641   -0.955817
H     -3.205387   -2.292506   -0.389200
H     -4.526802    0.388135   -1.347145
H     -3.669329   -0.727803   -2.414306
H     -1.168275    2.565691    1.237807
H     -4.804165    2.571094    2.066389
H     -3.402262    3.516490    1.440456
H     -3.142962    2.171808    2.642473
H      2.474607    3.348989    1.241523
H      0.807344    3.960241    0.929006
H      1.093118    2.657263    2.170508
H      2.364000   -0.299486    0.051969
H      3.734158   -0.599187   -2.664832
H      5.802446   -1.930477   -2.464317
H      7.859454   -2.489798   -1.240730
H      6.357168   -0.470490    2.244573
H      4.310990    0.119413    1.039972
H      9.156254   -2.364569    0.859713
H     -6.143039   -3.620020    0.626057
H     -5.588850   -2.698446    2.078292
H     -4.399512   -3.608005    1.080744
