14

C     -0.777824   -1.520288    0.382539
N      0.382354   -1.684299    1.059111
C      1.064868   -0.546009    0.823827
C      0.317097    0.281304    0.017654
N     -0.846616   -0.334173   -0.260932
C     -1.934942    0.143564   -1.061729
O     -2.964845   -0.562925   -1.225277
N      0.703179    1.577416   -0.449947
C      2.373903   -0.273564    1.352554
N      3.427416   -0.054012    1.777925
H     -1.563004   -2.265387    0.363729
H     -1.887650    1.113743   -1.535204
H      1.628907    1.979786   -0.183590
H      0.077157    2.144844   -1.060661
