16

C      0.370082    1.659150    0.867554
N      1.706213    1.490595    0.740336
C      1.832097    0.276024    0.170159
C      0.585107   -0.268342   -0.036492
N     -0.339202    0.609999    0.397794
C     -1.770125    0.503193    0.379688
O     -2.447646    1.032334    1.301067
N     -2.442927   -0.145107   -0.700263
N      0.317275   -1.599568   -0.487560
C      3.096557   -0.346924   -0.113609
N      4.114011   -0.848536   -0.342081
H     -0.077501    2.548769    1.292320
H     -3.480865   -0.256788   -0.680397
H     -1.925267   -0.427246   -1.561407
H      1.094718   -2.207061   -0.828591
H     -0.632527   -2.020492   -0.398519
