18

C     -0.644127   -0.076313    0.410533
C     -1.841743   -0.232174   -0.166179
C     -2.711941   -1.383295    0.123378
O     -2.366721   -2.270024    0.949422
O     -3.935147   -1.493980   -0.524435
C      0.239054    1.076705    0.097600
C      1.580959    0.946473    0.120700
C      2.304270   -0.328484    0.310374
O      3.264756   -0.360045    1.124252
C      1.994636   -1.536804   -0.474251
O      1.210431   -1.482191   -1.458256
O      2.598271   -2.745501   -0.150482
N     -0.334670    2.378010   -0.134976
O     -1.469363    2.658023    0.303988
O      0.387565    3.357746   -0.778033
H     -0.280856   -0.833536    1.095544
H     -2.190978    0.490579   -0.893114
H      2.195603    1.834809    0.043936
