39

C      5.870459    0.085814   -0.332198
N      4.406306    0.015472   -0.213622
C      3.855812   -0.979065   -1.162502
C      2.358388   -0.764884   -1.483843
N      1.686335    0.073575   -0.479475
C      2.347133    1.286194    0.025808
C      3.807176    1.342337   -0.417642
C      0.287466   -0.131025   -0.193307
C     -0.188619   -0.029484    1.133780
C     -1.544814   -0.234926    1.366955
C     -2.429111   -0.513356    0.337481
C     -1.990971   -0.629774   -0.979692
C     -0.623295   -0.434995   -1.240694
N     -3.745042   -0.674592    0.867016
C     -4.988491   -0.335521    0.495211
C     -5.678831    0.025028    1.643819
N     -4.845786    0.005774    2.714616
C     -3.693441   -0.454558    2.182048
C     -2.326171   -0.175698    2.604826
O     -1.927396    0.151226    3.753095
C     -7.024198    0.529133    1.697316
N     -8.107036    0.934896    1.740052
N     -5.438893   -0.170788   -0.850616
H      6.314305   -0.924785   -0.200672
H      6.175176    0.490964   -1.323066
H      6.285630    0.735501    0.467874
H      4.419072   -0.973578   -2.124216
H      3.980621   -1.988917   -0.714592
H      1.861524   -1.757778   -1.555236
H      2.265247   -0.269764   -2.475087
H      2.325378    1.286526    1.136065
H      1.810508    2.188457   -0.339241
H      4.329708    2.110512    0.195518
H      3.873404    1.647434   -1.487397
H      0.475548    0.183478    1.960208
H     -2.665591   -0.880002   -1.783652
H     -0.274301   -0.510693   -2.262222
H     -4.849148   -0.460969   -1.657830
H     -6.394059    0.202830   -1.044887
