24

C     -3.298870    0.709717   -1.175745
C     -2.336043    1.432761   -0.467873
C     -1.273498    0.767347    0.151156
C     -1.160056   -0.632323    0.059211
C     -2.142819   -1.351474   -0.645021
C     -3.203541   -0.681128   -1.262241
C     -0.042301   -1.347020    0.719646
O     -0.196651   -2.548635    1.069878
N      1.201111   -0.690923    1.011506
C      1.903615   -0.799191    2.159496
N      3.056878   -0.092098    2.138948
C      3.075458    0.472904    0.915323
C      1.947712    0.102612    0.219710
N      1.669850    0.400316   -1.151918
C      4.151805    1.292431    0.428512
N      5.017898    1.952074    0.036378
H     -4.120961    1.226690   -1.653619
H     -2.415325    2.509725   -0.394570
H     -0.549086    1.346112    0.709772
H     -2.084518   -2.429774   -0.727239
H     -3.952099   -1.240782   -1.808118
H      1.581285   -1.384964    3.010989
H      0.869264   -0.045150   -1.650104
H      2.300894    1.030771   -1.694078
