43

C     -3.448758   -2.670434    0.270836
N     -3.111959   -1.276942   -0.084843
C     -3.972316   -0.365644    0.695757
C     -3.854370    1.053073    0.150299
C     -2.419558    1.474356    0.022782
C     -2.127879    2.833933   -0.198217
C     -0.808637    3.191643   -0.433090
C      0.201134    2.283486   -0.423283
C     -0.021494    0.924409   -0.148837
C     -1.373150    0.508553    0.007915
C     -1.676928   -0.976341    0.180374
C     -0.748666   -1.774369   -0.769846
C      0.700310   -1.423286   -0.521413
C      1.057980   -0.105872   -0.163900
C      2.388944    0.158781    0.239538
C      3.377669   -0.837035    0.113590
C      3.018299   -2.112028   -0.356055
C      1.689198   -2.406038   -0.650486
O      4.699792   -0.528314    0.473274
C      5.792139   -1.438923    0.399752
O      2.716754    1.388162    0.812932
O      1.376416    2.925513   -0.772319
C      1.094822    4.315057   -0.975898
O     -0.313286    4.441502   -0.751084
H     -4.546320   -2.839863    0.219328
H     -3.012373   -3.375109   -0.464566
H     -3.097498   -2.926563    1.295015
H     -3.694419   -0.382854    1.775215
H     -5.042024   -0.662154    0.613093
H     -4.329665    1.099837   -0.853541
H     -4.396027    1.748383    0.828086
H     -2.911162    3.580870   -0.231197
H     -1.422390   -1.246648    1.231912
H     -0.879811   -2.862742   -0.602476
H     -1.003165   -1.548662   -1.828213
H      3.755166   -2.895794   -0.465433
H      1.428515   -3.408501   -0.967167
H      6.713988   -0.927234    0.744257
H      5.604846   -2.314026    1.057248
H      5.941669   -1.772199   -0.648936
H      3.651880    1.610271    1.132146
H      1.345495    4.608679   -2.016701
H      1.656840    4.931067   -0.243014
