32

C      4.721789    1.373643   -0.582799
O      3.838310    0.470536    0.074085
C      2.437477    0.542169    0.012674
C      1.689429   -0.417041    0.710901
C      0.281916   -0.370139    0.669257
C     -0.384737    0.630142   -0.062348
C      0.378163    1.578772   -0.761822
C      1.772507    1.538704   -0.723928
C     -1.904504    0.683850   -0.130205
C     -2.494913   -0.505133   -0.937419
C     -3.969279   -0.286205   -1.335727
O     -4.797774   -0.185089   -0.207211
O     -2.319905   -1.736431   -0.278601
O     -2.471707    0.803366    1.152923
O      2.381265   -1.402241    1.433883
C      1.759481   -2.439394    2.185896
H      4.555207    2.407526   -0.213280
H      5.768749    1.081863   -0.361276
H      4.565475    1.329643   -1.681358
H     -0.293449   -1.112185    1.202255
H     -0.105254    2.355083   -1.341913
H      2.324972    2.288213   -1.273825
H     -2.189858    1.608363   -0.679123
H     -1.926369   -0.565272   -1.891882
H     -4.060593    0.618182   -1.981925
H     -4.307968   -1.152998   -1.942155
H     -4.885119    0.781196    0.002253
H     -2.960358   -1.778393    0.477374
H     -2.219205    0.009270    1.688053
H      1.140680   -3.076384    1.519094
H      1.131117   -2.003392    2.991069
H      2.544454   -3.070223    2.650838
