27

C      3.042472   -2.110117   -1.176949
O      2.241605   -1.058669   -0.652242
C      1.447759   -1.212992    0.489616
O      1.407641   -2.320077    1.093556
C      0.592359   -0.073261    0.975369
C      1.311965    1.279287    0.799411
C      0.545763    2.396197    1.447929
O      0.707002    2.638447    2.672964
O     -0.375749    3.142421    0.718778
C     -0.752596   -0.093578    0.272637
C     -0.841876    0.008243   -1.129844
C     -2.088958    0.006534   -1.761440
C     -3.257977   -0.093930   -1.003919
C     -3.182388   -0.191876    0.387292
C     -1.937833   -0.190653    1.024418
H      2.400541   -2.970384   -1.462099
H      3.789323   -2.432653   -0.420909
H      3.576866   -1.745984   -2.078189
H      0.443541   -0.224167    2.069244
H      1.461051    1.510236   -0.277400
H      2.320085    1.224126    1.266501
H     -0.540599    2.958731   -0.263627
H      0.051613    0.092474   -1.734545
H     -2.148883    0.085074   -2.839264
H     -4.222568   -0.094226   -1.494837
H     -4.089275   -0.267060    0.973295
H     -1.900884   -0.262145    2.104255
