24

C     -3.329474    0.427683   -1.115668
O     -2.046844    0.822178   -0.638664
C     -0.991007   -0.056007   -0.347552
C      0.249073    0.452587    0.124365
C      1.301329   -0.435116    0.413437
C      1.122440   -1.818190    0.234798
C     -0.092359   -2.315662   -0.227436
C     -1.141466   -1.446703   -0.517000
O      2.513740    0.100533    0.878068
C      3.663583   -0.670902    1.210718
O      0.504772    1.822430    0.328458
C     -0.401191    2.897297    0.105799
H     -3.956481    1.331778   -1.256243
H     -3.824953   -0.235880   -0.375874
H     -3.231076   -0.090951   -2.092626
H      1.917830   -2.518144    0.450861
H     -0.222142   -3.381927   -0.362342
H     -2.070049   -1.870051   -0.873961
H      4.471626    0.010136    1.547747
H      4.019080   -1.230314    0.319723
H      3.425477   -1.375175    2.035641
H      0.104795    3.850676    0.361325
H     -0.695052    2.937662   -0.964098
H     -1.291652    2.792064    0.760526
