15

C     -1.387402   -1.231705   -0.586156
C     -0.280084   -0.284324   -0.209783
C      0.990062   -0.653804   -0.461591
C      2.168834    0.174827   -0.157282
O      3.319777   -0.255714   -0.429267
C     -0.623612    1.043116    0.423606
O     -0.167165    1.066115    1.747597
H     -2.385869   -0.827923   -0.318159
H     -1.252437   -2.197412   -0.054175
H     -1.368660   -1.415242   -1.681438
H      1.173307   -1.619440   -0.920244
H      2.074022    1.151260    0.296916
H     -1.722929    1.211421    0.415030
H     -0.159223    1.868013   -0.161604
H     -0.378621    1.970813    2.096550
