21

C      2.880377    0.109452    0.402057
C      1.539913    0.249289   -0.302303
O      0.505782    0.199645    0.664397
C     -0.795933   -0.022517    0.121613
C     -1.138415    0.925967   -1.054475
C     -1.789536    0.262463    1.260889
C     -0.971342   -1.496629   -0.305881
H      2.932447   -0.867862    0.927300
H      3.008940    0.928021    1.141802
H      3.703750    0.163376   -0.341266
H      1.528943    1.231885   -0.822027
H      1.465695   -0.566160   -1.051138
H     -0.542390    0.680778   -1.958906
H     -2.210597    0.833495   -1.332834
H     -0.938008    1.981018   -0.769360
H     -1.586168   -0.404234    2.126816
H     -2.839164    0.100407    0.931745
H     -1.687827    1.314108    1.606098
H     -2.040351   -1.720403   -0.512988
H     -0.407237   -1.727512   -1.232308
H     -0.618877   -2.174588    0.500768
