24

C     -1.516580    0.399889    0.020342
C     -1.211150   -0.151969   -1.374519
C     -1.965634   -1.424696   -1.611792
O     -1.404850   -2.534380   -1.412995
O     -3.298048   -1.392881   -2.012502
C     -0.737819    1.662220    0.277716
O     -0.979720    2.665148   -0.377506
C      0.348428    1.698541    1.316958
C      1.577336    0.988720    0.815341
O      2.174199    1.436120   -0.153204
C      2.093119   -0.252845    1.490389
C      1.841224   -1.454256    0.631903
O      0.866757   -2.211690    0.880866
O      2.658210   -1.727845   -0.461137
H     -2.602221    0.621650    0.111578
H     -1.258520   -0.365560    0.784500
H     -0.120075   -0.343693   -1.473851
H     -1.501561    0.591029   -2.148571
H     -3.778925   -0.513808   -2.161522
H     -0.028522    1.232491    2.252130
H      0.612770    2.751473    1.556443
H      1.604459   -0.395259    2.478271
H      3.183750   -0.147971    1.673688
H      3.443372   -1.130428   -0.690672
