47

C      2.613614   -0.732088   -2.214356
C      2.874025   -1.159231   -0.766168
C      4.051631   -0.362391   -0.126556
C      3.864302   -0.298429    1.398806
C      2.496555    0.348526    1.749360
C      1.474085    0.152181    0.607658
O      1.668179   -1.111230   -0.008262
O      0.169820    0.214791    1.152051
C     -0.816068    0.315308    0.134099
C     -1.445928    1.725508    0.177765
C     -2.721186    1.808413   -0.691078
C     -3.647642    0.606496   -0.372189
O     -2.951745   -0.615253   -0.554573
C     -1.904861   -0.742690    0.397300
O     -1.315163   -2.022271    0.266880
C     -2.152571   -3.003556    0.838436
C     -4.899698    0.598128   -1.262797
O     -5.641046    1.777667   -1.100245
O     -2.410261    1.880261   -2.063368
O     -0.517952    2.718452   -0.184228
O      2.640843    1.726767    1.989983
O      4.928419    0.413640    1.976898
O      5.292407   -0.931584   -0.467246
H      1.793574   -1.345144   -2.644739
H      2.322358    0.337515   -2.269361
H      3.527754   -0.885469   -2.826433
H      3.169317   -2.230581   -0.801729
H      4.045874    0.682270   -0.511342
H      3.869074   -1.345774    1.785890
H      2.103849   -0.156810    2.664797
H      1.613079    0.979719   -0.130408
H     -0.417585    0.125614   -0.893163
H     -1.748781    1.926703    1.229956
H     -3.253450    2.746000   -0.418905
H     -4.005701    0.692393    0.681223
H     -2.286723   -0.594843    1.439673
H     -1.701605   -4.000766    0.657888
H     -3.162799   -3.002643    0.372128
H     -2.232688   -2.866029    1.939286
H     -4.608820    0.501349   -2.330267
H     -5.530255   -0.285444   -1.012381
H     -6.103212    1.704565   -0.224616
H     -2.017401    1.011966   -2.337639
H     -0.169189    2.496142   -1.086458
H      2.890210    1.831782    2.945287
H      4.916868    0.203521    2.947271
H      5.336495   -1.833454   -0.054128
