39

C     -3.494002    1.374483    2.315945
C     -3.675681   -0.082884    1.865130
N     -3.248038   -0.332029    0.469356
C     -4.181343    0.238321   -0.531466
C     -4.855648   -0.892324   -1.297360
C     -1.833239    0.027301    0.230659
C     -1.257953   -0.780481   -0.937996
N      0.163604   -0.486663   -1.111426
C      1.169352   -0.998614   -0.221276
O      0.858215   -1.875695    0.630855
C      2.573001   -0.526999   -0.299830
C      2.887282    0.730361   -0.846383
C      4.214466    1.165511   -0.907286
C      5.250588    0.357856   -0.419329
C      4.941015   -0.892700    0.137354
C      3.614350   -1.328948    0.200106
N      6.607505    0.818599   -0.488789
O      7.633905    0.060909   -0.031862
H     -3.997097    2.078865    1.622855
H     -2.417155    1.634910    2.380955
H     -3.937440    1.502685    3.325706
H     -4.743437   -0.370762    1.985780
H     -3.098679   -0.743491    2.548167
H     -4.981224    0.851676   -0.061201
H     -3.662854    0.901361   -1.259366
H     -5.554100   -0.471070   -2.050919
H     -5.429173   -1.535938   -0.596986
H     -4.096537   -1.511354   -1.819808
H     -1.728405    1.116420    0.025036
H     -1.225609   -0.202840    1.133916
H     -1.401004   -1.868658   -0.761198
H     -1.794668   -0.514662   -1.873357
H      0.451036    0.035843   -1.968750
H      2.110922    1.392127   -1.206335
H      4.434722    2.137758   -1.330149
H      5.723247   -1.533234    0.523818
H      3.404148   -2.300103    0.631034
H      6.822534    1.746860   -0.917913
H      7.753396    0.338228    0.912312
