22

C      2.509098   -0.536663    0.628403
C      2.096439    0.281293   -0.594756
C      0.871833   -0.308421   -1.309308
C     -0.380902   -0.199222   -0.472603
C     -0.829839   -1.310937    0.261622
C     -1.974298   -1.217494    1.057712
C     -2.679074   -0.014686    1.132060
C     -2.240195    1.098882    0.412030
C     -1.092039    1.015502   -0.389672
O     -0.657460    2.133209   -1.101979
H      2.692840   -1.594388    0.343362
H      1.720142   -0.496558    1.408477
H      3.443990   -0.117056    1.055847
H      1.892906    1.329856   -0.287108
H      2.947684    0.299178   -1.309187
H      0.720276    0.233667   -2.267773
H      1.071332   -1.368893   -1.579379
H     -0.290507   -2.249264    0.221166
H     -2.313691   -2.078147    1.619487
H     -3.564987    0.055527    1.749908
H     -2.792068    2.027848    0.478644
H     -1.151482    3.016768   -1.056953
