43

C     -2.572343   -1.468517    1.661740
C     -2.049398   -1.253769    0.224099
C     -1.138570    0.003754    0.083948
C     -1.835325    1.108283   -0.737025
C     -3.323842    1.172159   -0.371342
C     -3.991945   -0.188389   -0.684567
O     -3.090991   -1.292711   -0.743953
O     -5.021088   -0.443490    0.234759
O     -3.962048    2.186577   -1.105773
O     -1.206848    2.351724   -0.542275
O      0.059716   -0.371056   -0.583111
C      1.219170    0.173623    0.025049
C      1.701730   -0.775168    1.174742
C      3.205607   -1.114370    1.073231
C      3.951813    0.109756    0.639362
O      4.986628    0.441103    1.198622
C      3.374094    0.932656   -0.487251
O      2.203867    0.305923   -0.989349
C      4.379846    1.065051   -1.639176
O      5.504928    1.804516   -1.245265
O      3.414080   -2.127029    0.123320
O      1.468334   -0.160198    2.417876
O     -3.419752   -2.584327    1.718038
H     -3.130705   -0.578698    2.015589
H     -1.713928   -1.609762    2.357600
H     -1.411930   -2.142793    0.020323
H     -0.954098    0.399815    1.110735
H     -1.755735    0.856189   -1.818674
H     -3.420226    1.383882    0.720430
H     -4.448220   -0.107177   -1.698002
H     -5.492717   -1.255291   -0.087734
H     -3.779138    3.043185   -0.638282
H     -1.324775    2.605208    0.410692
H      1.010327    1.194830    0.431900
H      1.139530   -1.739525    1.126178
H      3.586323   -1.449918    2.067399
H      3.132630    1.954637   -0.114691
H      3.890003    1.556252   -2.510952
H      4.709637    0.055773   -1.967745
H      5.223598    2.756185   -1.215296
H      3.158599   -2.983398    0.556040
H      0.560702   -0.428816    2.715319
H     -2.837540   -3.386679    1.663992
