41

C     -4.148172    0.470101    0.687596
C     -4.107441   -0.103971   -0.730965
C     -5.009239    0.484881   -1.748622
O     -5.315943   -0.728400   -1.091858
C     -2.873781   -0.876433   -1.225877
C     -1.653852    0.061611   -1.448934
C     -0.651246   -0.476793   -0.490461
C      0.641350   -0.024359   -0.235399
C      1.428909   -0.703481    0.734215
C      0.879765   -1.829725    1.421683
C     -0.439526   -2.248147    1.123543
C     -1.167751   -1.549995    0.167443
O     -2.457365   -1.818761   -0.236437
O      1.652758   -2.505202    2.381631
C      1.213182   -3.635232    3.128425
C      2.734946   -0.219045    0.969716
O      3.486545   -0.775886    1.817263
C      3.200321    0.897143    0.249699
C      2.340093    1.503998   -0.694424
O      1.118012    1.025364   -0.893351
C      2.774199    2.617440   -1.427424
C      4.062709    3.128499   -1.223097
C      4.916205    2.532878   -0.291954
C      4.491871    1.422971    0.442944
O      1.920183    3.210133   -2.356219
H     -3.961516   -0.337996    1.425106
H     -3.362710    1.245764    0.799160
H     -5.134892    0.928072    0.914392
H     -5.689407    1.299244   -1.421893
H     -4.757409    0.309093   -2.815635
H     -3.100192   -1.424591   -2.167880
H     -1.877081    1.125502   -1.216922
H     -1.271655   -0.027887   -2.488478
H     -0.896963   -3.093313    1.618636
H      0.968570   -4.474253    2.443326
H      2.027517   -3.958658    3.808531
H      0.325556   -3.367409    3.739614
H      4.403605    3.988044   -1.786071
H      5.910331    2.932861   -0.139137
H      5.173645    0.980238    1.158657
H      2.205872    4.015699   -2.900546
