50

C      2.752340    3.028339   -0.127416
C      2.444175    1.579590    0.294928
C      2.556476    0.509130   -0.863940
C      2.797554   -0.958978   -0.330082
C      1.855018   -1.328437    0.823609
O      2.353944   -1.545027    1.954295
O      0.458585   -1.396644    0.735095
C     -0.311273   -1.605156   -0.448252
C     -1.767622   -1.511807   -0.099067
C     -2.388327   -2.363266    0.694740
C     -3.836352   -2.050709    0.762238
N     -4.062258   -0.981103   -0.239236
C     -2.727635   -0.505691   -0.657514
C     -2.551668    0.926218   -0.089010
C     -3.760391    1.156674    0.801440
C     -4.799392    0.178560    0.287384
O     -1.357318    1.089279    0.678608
C     -0.176599    1.653864    0.177005
O     -0.155532    2.155376   -0.981938
C      1.073204    1.564331    0.972562
C      0.992484    1.447006    2.301230
O     -4.723560   -1.495699   -1.308295
C      2.647651   -2.000900   -1.468310
O      4.126614   -1.016688    0.141285
C      3.650665    0.892039   -1.891446
H      2.569199    3.718739    0.722379
H      3.822568    3.134953   -0.395189
H      2.127745    3.348315   -0.984219
H      3.228767    1.322607    1.042645
H      1.618995    0.519428   -1.446504
H     -0.086066   -0.837473   -1.212925
H     -0.098920   -2.617980   -0.862169
H     -1.905402   -3.181361    1.219992
H     -4.077860   -1.722987    1.795817
H     -4.425636   -2.964828    0.531816
H     -2.625921   -0.486222   -1.769662
H     -2.590830    1.662775   -0.924137
H     -3.517734    0.911707    1.860398
H     -4.117382    2.210513    0.737850
H     -5.520904   -0.102522    1.088122
H     -5.375912    0.673118   -0.528147
H      1.882065    1.371158    2.912797
H      0.035734    1.424169    2.803654
H      1.819463   -1.751285   -2.157184
H      2.474658   -3.017744   -1.052727
H      3.575272   -2.056690   -2.072883
H      4.326781   -1.953196    0.409298
H      4.635741    1.016371   -1.393792
H      3.745978    0.123919   -2.685527
H      3.388818    1.834214   -2.417230
