43

C      6.035004    2.109777    1.162502
O      5.470290    1.464355    0.044410
C      4.944108    0.217345    0.448868
C      3.493537    0.290240    0.814647
N      3.002552   -0.481104   -0.341474
C      4.425008   -0.561951   -0.717845
C      1.755713   -0.940506   -0.861108
N      1.710977   -1.663176   -2.019613
C      0.521417   -2.107154   -2.542130
N     -0.657746   -1.832016   -1.904854
C     -0.607974   -1.120736   -0.752555
C      0.551716   -0.670386   -0.222778
N      0.316325    0.034943    0.899278
C     -1.039579   -0.021152    1.009832
N     -1.634034   -0.735369    0.015740
C     -3.065630   -0.922777   -0.243031
C     -3.707150    0.363082   -0.790772
C     -4.758676    0.796591    0.249907
C     -4.712112   -0.277068    1.285208
C     -3.805593   -1.200719    1.019093
C     -4.441393    2.172730    0.855855
O     -5.458949    2.570027    1.736068
N      0.514625   -2.855888   -3.755030
H      5.285586    2.249295    1.973825
H      6.917380    1.548137    1.541775
H      6.384586    3.115484    0.851357
H      5.581662   -0.393415    1.131176
H      3.271519   -0.239712    1.767252
H      3.084363    1.325356    0.801504
H      4.603176   -0.066471   -1.698730
H      4.774312   -1.618446   -0.712401
H     -1.585774    0.468113    1.805554
H     -3.224033   -1.768930   -0.947600
H     -4.207610    0.146391   -1.760162
H     -2.944123    1.152477   -0.974837
H     -5.769423    0.816131   -0.214294
H     -5.355153   -0.311730    2.158810
H     -3.625068   -2.061841    1.654315
H     -3.452283    2.161461    1.370622
H     -4.383167    2.921819    0.037641
H     -5.232678    2.193650    2.626251
H      1.409352   -3.069967   -4.248783
H     -0.385060   -3.196893   -4.160582
