46

C      6.553150   -1.508972   -0.651200
C      6.854677   -0.019965   -0.739325
C      5.415161   -0.508555   -0.780798
C      4.593620   -0.266923    0.500370
C      3.691695    0.926452    0.431805
N      2.428667    0.167226    0.481593
C      3.300915   -1.020760    0.548096
C      1.032572    0.460893    0.469829
N      0.596254    1.753384    0.393283
C     -0.742424    2.057610    0.373717
N     -1.676892    1.060694    0.431940
C     -1.240336   -0.219304    0.511542
C      0.072314   -0.541596    0.529145
N      0.229586   -1.877330    0.586373
C     -1.054373   -2.331193    0.602698
N     -1.979218   -1.337264    0.564257
C     -3.437185   -1.489607    0.510269
C     -4.004647   -1.068164   -0.856295
C     -5.099951   -0.025966   -0.557081
C     -4.998912    0.200657    0.914200
C     -4.108783   -0.589541    1.488347
C     -4.897343    1.280112   -1.342000
O     -5.919821    2.195398   -1.052909
N     -1.160952    3.417427    0.288797
F      5.296213   -0.336623    1.695877
H      6.780933   -2.068971   -1.582666
H      6.715676   -1.945556    0.357078
H      7.260356    0.298386   -1.722784
H      7.196960    0.430614    0.216418
H      4.928631   -0.469544   -1.779811
H      3.786557    1.589739    1.320226
H      3.769613    1.497571   -0.520721
H      3.131695   -1.682717   -0.330985
H      3.153995   -1.563039    1.508631
H     -1.307758   -3.383008    0.634289
H     -3.723150   -2.540467    0.738138
H     -3.206681   -0.650869   -1.510541
H     -4.443782   -1.947678   -1.376111
H     -6.100465   -0.453225   -0.789271
H     -5.611737    0.905435    1.467198
H     -3.912590   -0.593366    2.555654
H     -4.877586    1.064824   -2.434802
H     -3.922970    1.740781   -1.072578
H     -6.729118    1.878228   -1.532670
H     -0.455413    4.185685    0.243028
H     -2.177157    3.656844    0.269752
