29

C     -3.892343   -1.506416    1.149275
C     -2.421013   -1.252472    0.838902
N     -2.225606    0.086845    0.284247
C     -0.927706    0.562667   -0.088555
N      0.168084   -0.225864    0.064783
C      1.397768    0.230215   -0.290496
N      1.528079    1.481504   -0.801226
C      0.438795    2.275144   -0.957504
N     -0.788692    1.812389   -0.599914
O      0.595716    3.559391   -1.485002
C     -0.496428    4.450254   -1.679116
N      2.555403   -0.597099   -0.130756
C      2.460806   -1.950866    0.415163
C      3.833590   -2.611979    0.478752
H     -4.497982   -1.424980    0.221707
H     -4.258816   -0.767588    1.893346
H     -4.014664   -2.527403    1.568291
H     -1.829745   -1.355525    1.774384
H     -2.068267   -2.011144    0.107239
H     -3.044399    0.723701    0.150936
H     -0.990434    4.663852   -0.707572
H     -0.119246    5.401555   -2.107184
H     -1.230213    4.004657   -2.383790
H      3.484446   -0.210514   -0.415703
H      1.792484   -2.563380   -0.227891
H      2.030997   -1.907757    1.439249
H      4.272311   -2.680060   -0.539432
H      3.735609   -3.636454    0.895653
H      4.511466   -2.022671    1.132213
