39

C      3.216079    0.995322    0.136781
C      4.409875    0.068763   -0.143799
C      3.819376   -1.295845   -0.059868
C      2.592698   -1.280547    0.433657
C      2.140315    0.101543    0.787595
N      0.781166    0.402060    0.299257
C      0.280266    1.625716   -0.033572
N     -1.063220    1.631023   -0.246785
C     -1.406103    0.354920   -0.005693
C     -0.318369   -0.371487    0.340724
N     -0.409944   -1.667312    0.727909
C     -1.643045   -2.259117    0.732288
N     -2.755207   -1.542113    0.369625
C     -2.666510   -0.230454    0.000520
N     -3.838987    0.504004   -0.348707
C     -4.193765    1.868219   -0.781867
C     -5.661887    1.620098   -0.889923
C     -5.285858    0.243143   -0.451928
F     -6.387601    2.303087    0.071681
N     -1.773770   -3.624173    1.121142
C      5.050580    0.328542   -1.516360
O      6.151190   -0.517308   -1.716149
H      2.841088    1.425253   -0.818344
H      3.506167    1.827619    0.814277
H      5.170895    0.183470    0.659584
H      4.355963   -2.210766   -0.290868
H      2.052451   -2.191761    0.660878
H      2.169341    0.216746    1.893134
H      0.877831    2.526281   -0.086695
H     -3.933601    2.614159    0.001979
H     -3.729097    2.105006   -1.764740
H     -6.067741    1.683241   -1.922700
H     -5.495195   -0.523059   -1.231093
H     -5.711195   -0.031833    0.539008
H     -0.933009   -4.176817    1.400297
H     -2.711281   -4.083680    1.129808
H      4.309492    0.143089   -2.324043
H      5.370281    1.393270   -1.588388
H      6.890332   -0.158305   -1.158890
