19

C      1.800583   -1.143166    0.647028
C      1.176468   -0.082916   -0.267616
C     -0.351059   -0.283535   -0.402054
C     -1.133738   -0.056526    0.909127
C     -2.304171    0.713472    0.445765
O     -3.287083    1.009559    1.173924
O     -2.211536    1.092781   -0.874054
C     -0.986184    0.670477   -1.443062
O      1.458366    1.201853    0.227234
H      1.573475   -2.162062    0.267335
H      2.903842   -1.017803    0.669708
H      1.413601   -1.046880    1.683411
H      1.624079   -0.199658   -1.282734
H     -0.543944   -1.326202   -0.744193
H     -0.567626    0.549619    1.647952
H     -1.449771   -1.020662    1.362397
H     -1.173640    0.148126   -2.405473
H     -0.351328    1.563558   -1.628544
H      2.409669    1.389965    0.013848
