23

C     -2.333421    0.126098    1.011480
C     -1.019094    0.909716    0.927337
C      0.049912    0.097908    0.232527
C      1.341506    0.330286    0.544316
C      2.504480   -0.425210    0.024782
O      2.396139   -1.644758   -0.273222
C      3.824990    0.215058   -0.074242
O      3.970470    1.431987    0.220558
O      4.922072   -0.526268   -0.502955
C     -0.363955   -0.823318   -0.859173
C     -1.652616   -1.076409   -1.112477
C     -2.778351   -0.401305   -0.365403
O     -3.343054    0.625502   -1.142017
H     -3.127645    0.774545    1.440871
H     -2.193126   -0.735709    1.701285
H     -1.174646    1.859695    0.373135
H     -0.704560    1.168760    1.962623
H      1.563461    1.124383    1.248412
H      5.838631   -0.101554   -0.579427
H      0.369367   -1.292131   -1.498986
H     -1.904941   -1.727183   -1.940748
H     -3.569350   -1.162210   -0.192869
H     -2.616268    1.252115   -1.396093
