24

C      3.158529   -0.536796    0.280435
C      2.126197    0.547643   -0.031195
C      0.786418   -0.065155   -0.286610
O      0.458286   -0.382452   -1.462367
O     -0.063975   -0.329506    0.793240
C     -1.385693   -0.852194    0.655295
C     -2.415814    0.284623    0.520574
C     -2.232317    1.033417   -0.772521
O     -2.529513    0.494354   -1.871726
O     -1.706548    2.319286   -0.760511
N     -3.782593   -0.242539    0.616643
C      4.498889    0.075244    0.538143
O      4.823104    0.422949    1.704107
O      5.371811    0.307318   -0.517217
H      3.239556   -1.238111   -0.578578
H      2.839782   -1.117514    1.174107
H      2.044484    1.248928    0.827737
H      2.444375    1.128709   -0.924835
H     -1.614726   -1.431274    1.575007
H     -1.449162   -1.558786   -0.201708
H     -2.254805    0.995760    1.362277
H     -3.928096   -0.680240    1.555504
H     -3.955521   -0.960396   -0.124908
H     -4.472667    0.536734    0.510068
