13

C      0.345928   -0.854555   -0.504663
C      1.414497    0.146109   -0.200547
O      1.849441    0.903923   -1.108405
O      1.909474    0.256501    1.094886
N     -0.927803   -0.423270    0.071202
C     -1.693692    0.643286   -0.503856
O     -1.286765    1.252964   -1.528441
O     -1.422551   -1.076887    1.150581
H      0.643224   -1.831928   -0.067429
H      0.238826   -0.996604   -1.602271
H      2.626033    0.935906    1.320963
H     -2.635746    0.930656   -0.055696
H     -1.060866   -0.587793    1.933676
