32

C     -3.156287    0.019102   -0.125430
C     -1.725099    0.572962   -0.017793
C     -0.719261   -0.242152   -0.855014
C     -0.999757   -0.099179   -2.325198
O     -0.800622    1.001649   -2.906531
O     -1.497787   -1.182235   -3.042590
N      0.650773    0.196639   -0.571471
C      1.795471   -0.582004   -0.949195
O      1.648059   -1.697383   -1.518873
C      3.175639   -0.094904   -0.626552
C      3.540185   -0.441066    0.817968
C      4.920362    0.045308    1.140796
O      5.078742    1.166851    1.690829
O      6.035963   -0.713437    0.799072
C     -4.144939    0.821927    0.727682
N     -3.843822    0.677171    2.149353
H     -3.175076   -1.046510    0.192043
H     -3.493831    0.067029   -1.183190
H     -1.709149    1.637763   -0.340583
H     -1.405547    0.535926    1.046828
H     -0.815766   -1.312204   -0.564343
H     -1.699047   -1.101415   -4.032042
H      0.810153    1.107600   -0.082975
H      3.906121   -0.563614   -1.322460
H      3.218941    1.006320   -0.774158
H      3.498428   -1.542363    0.964447
H      2.810252    0.027318    1.514660
H      5.938023   -1.609910    0.337589
H     -5.178363    0.461254    0.526067
H     -4.095934    1.896261    0.443871
H     -4.502985    1.292976    2.678211
H     -4.063839   -0.305681    2.432045
