24

C      3.596989    0.393443    0.574118
C      2.477500   -0.200993   -0.275483
C      1.109510    0.013340    0.382114
C     -0.013415   -0.585525   -0.476983
C     -1.395678   -0.412541    0.182362
C     -1.858088    1.056960    0.250674
C     -3.279580    0.955627   -0.131784
O     -4.096754    1.911010   -0.072971
O     -3.627104   -0.298668   -0.578737
C     -2.506282   -1.163038   -0.589961
H      4.573639    0.222979    0.074060
H      3.620768   -0.089931    1.574052
H      3.447842    1.487230    0.698527
H      2.491503    0.281540   -1.277141
H      2.664812   -1.289196   -0.406075
H      0.936732    1.103399    0.515991
H      1.103736   -0.470153    1.383886
H     -0.012638   -0.109106   -1.482488
H      0.182005   -1.672287   -0.612797
H     -1.361205   -0.823429    1.217179
H     -1.751289    1.467361    1.277782
H     -1.328601    1.701408   -0.483979
H     -2.760816   -2.125392   -0.096846
H     -2.213587   -1.354040   -1.645500
