38

C      0.128090    0.419385    0.338403
C     -0.179456   -0.324783   -0.972819
C     -1.688468   -0.480947   -1.220212
C     -2.337086   -1.518909   -0.287239
C     -3.790242   -1.842339   -0.679820
C     -4.772458   -0.679313   -0.466561
C     -4.895161   -0.306624    0.982267
O     -5.630320   -0.988022    1.744290
O     -4.177586    0.766112    1.504109
C      1.637078    0.572906    0.588031
C      2.302075    1.563267   -0.383883
C      3.712971    1.989255    0.061943
C      4.792619    0.919616   -0.179017
C      4.797012   -0.145750    0.879130
O      5.035658    0.160251    2.077187
O      4.560280   -1.477739    0.549947
H     -0.293833   -0.151919    1.191584
H     -0.356805    1.420128    0.331593
H      0.308699   -1.323941   -0.968546
H      0.239966    0.251097   -1.824540
H     -1.831175   -0.807194   -2.273667
H     -2.181218    0.507263   -1.103690
H     -2.304962   -1.169588    0.765202
H     -1.753714   -2.463928   -0.340959
H     -4.133715   -2.715598   -0.082782
H     -3.822312   -2.149387   -1.747880
H     -5.773017   -0.989595   -0.838055
H     -4.471068    0.204610   -1.065666
H     -3.564296    1.322294    0.920661
H      2.118625   -0.423109    0.508315
H      1.775122    0.936336    1.629831
H      1.677009    2.481209   -0.442596
H      2.351554    1.126797   -1.404153
H      3.706719    2.313338    1.125790
H      3.993050    2.883169   -0.537307
H      5.788632    1.412457   -0.167023
H      4.666860    0.467926   -1.186380
H      4.364873   -1.758733   -0.403371
