12

C     -0.952550    1.053498   -0.044522
C      0.410969    1.344173    0.019881
C      1.332884    0.294781    0.062951
N      0.902355   -0.997983    0.042170
C     -0.425344   -1.298500   -0.020535
C     -1.376855   -0.275926   -0.065025
O      1.824492   -2.017843    0.085263
H     -1.678087    1.855925   -0.078432
H      0.750741    2.371651    0.036288
H      2.392110    0.514446    0.112969
H     -0.748853   -2.331850   -0.036156
H     -2.431861   -0.512372   -0.114852
