41

C     -2.397574    1.289539    1.466831
C     -1.714047    1.537157    0.148489
C     -0.482271    0.914970   -0.169022
C      0.083963    1.101443   -1.453811
C     -0.555121    1.944843   -2.375225
C     -1.764298    2.558358   -2.053489
C     -2.348819    2.344869   -0.806688
C      1.367162    0.428104   -1.854056
N      0.172648    0.077467    0.810041
C      1.300365    0.593644    1.625115
C      1.349711    2.134328    1.671668
C      2.604513   -0.000711    1.149667
O      3.592974    0.738723    0.882822
O      2.715919   -1.389057    1.028756
C      3.894445   -2.025629    0.551374
C     -0.337047   -1.255117    1.064289
O     -0.028520   -1.846756    2.134910
C     -1.211039   -1.961948    0.102642
C     -1.828755   -3.178258    0.325332
C     -2.530576   -3.459014   -0.826838
C     -2.298324   -2.402485   -1.682464
O     -1.508969   -1.529591   -1.101442
H     -2.960124    0.334066    1.415561
H     -1.661184    1.231411    2.294478
H     -3.107112    2.109333    1.708508
H     -0.123947    2.116326   -3.353955
H     -2.256754    3.193449   -2.778590
H     -3.299682    2.813859   -0.585235
H      1.433452    0.323933   -2.957999
H      2.228167    1.034014   -1.505823
H      1.426656   -0.593471   -1.424626
H      1.160346    0.268535    2.679020
H      2.148043    2.468635    2.368385
H      1.558516    2.557920    0.666201
H      0.386263    2.540545    2.042966
H      4.750761   -1.790409    1.218256
H      3.736680   -3.123525    0.541466
H      4.117405   -1.684644   -0.481905
H     -1.777091   -3.788282    1.217628
H     -3.139421   -4.331702   -1.021170
H     -2.697317   -2.294869   -2.682066
