41

C     -1.189344   -3.705645   -1.087019
C     -1.610958   -2.313613   -1.517160
C     -2.648326   -2.168871   -2.481874
C     -2.874715   -0.916113   -3.079866
C     -2.107318    0.185974   -2.711725
C     -1.152806    0.087724   -1.696200
C     -0.439949    1.233064   -1.324110
C      0.508463    1.187448   -0.301812
C      0.746173   -0.021879    0.374819
C     -0.028145   -1.169126    0.067030
C     -0.920640   -1.151175   -1.044510
O      0.017982   -2.289111    0.903103
C      1.811523   -0.034995    1.402733
O      2.496600   -1.075261    1.595438
C      2.163524    1.231483    2.080422
C      1.911212    2.436593    1.389296
C      1.329470    2.424778   -0.006663
C      2.303189    3.659136    1.954350
C      2.912125    3.696465    3.212252
C      3.125408    2.510331    3.915339
C      2.738677    1.279040    3.375601
O      2.910974    0.141312    4.167213
O      3.305554    4.908704    3.774983
O     -3.877730   -0.761818   -4.038781
C     -3.523531   -3.307864   -2.856843
O     -3.878504   -3.472213   -4.055299
O     -3.978694   -4.191315   -1.881511
H     -1.675259   -3.971691   -0.125034
H     -1.446378   -4.472501   -1.845813
H     -0.085151   -3.770482   -0.996972
H     -2.288595    1.138002   -3.198025
H     -0.610752    2.169135   -1.845172
H      0.449308   -2.291297    1.817563
H      2.162974    2.480029   -0.738769
H      0.692392    3.326932   -0.141414
H      2.144589    4.582928    1.411086
H      3.577154    2.546601    4.899015
H      2.508275   -0.758977    3.947103
H      3.163907    5.788131    3.291802
H     -4.062104    0.131563   -4.480323
H     -4.580573   -4.969078   -2.124253
