15

C      2.318964   -0.627068    0.439577
N      2.275542    0.732710    0.396792
C      0.975817    0.969056    0.153370
N      0.387074    2.181009    0.014784
C     -0.957527    2.221353   -0.231810
N     -1.681144    1.060227   -0.334198
C     -1.088903   -0.163378   -0.194674
C      0.280231   -0.187122    0.055975
N      1.114811   -1.218533    0.234829
N     -1.862799   -1.358545   -0.305371
F     -1.579217    3.416018   -0.375971
H      3.229204   -1.183491    0.620074
H      0.902249   -2.240325    0.222201
H     -2.888052   -1.301165   -0.494081
H     -1.426250   -2.300747   -0.201496
