30

C      4.625391   -0.087806   -0.180558
C      3.734439    0.651059   -1.178780
C      2.343205    0.014303   -1.318674
C      1.469893    0.224680   -0.072823
C      0.052779   -0.315947   -0.298106
C     -0.818074   -0.114897    0.950284
C     -2.234877   -0.676315    0.756515
C     -3.083759    0.125695   -0.262025
C     -4.453302    0.337533    0.393961
C     -4.204893   -0.072371    1.788989
O     -5.043826    0.046203    2.719612
O     -2.952622   -0.610981    1.976432
H      4.688261   -1.166228   -0.439033
H      5.648572    0.342450   -0.211195
H      4.235718    0.023612    0.852318
H      4.232216    0.627629   -2.172449
H      3.639454    1.716579   -0.876220
H      1.839655    0.481293   -2.193474
H      2.446317   -1.072775   -1.530160
H      1.922345   -0.303116    0.793761
H      1.414664    1.310675    0.161252
H      0.107451   -1.400985   -0.537053
H     -0.405876    0.211834   -1.162321
H     -0.874633    0.966359    1.205540
H     -0.345535   -0.642522    1.807742
H     -2.181046   -1.741833    0.440285
H     -2.627916    1.117667   -0.476245
H     -3.184773   -0.432961   -1.217842
H     -5.220113   -0.323621   -0.063540
H     -4.769117    1.401756    0.343806
