30

C      3.986505   -0.887284    1.084754
C      2.928999   -0.515778    0.049334
C      2.034777    0.624393    0.557056
C      1.049796    1.130268   -0.511778
C      0.034548    0.082934   -1.013639
C     -0.813478   -0.608694    0.079736
C     -1.612479    0.364116    0.972925
C     -2.766319    1.005235    0.196298
C     -3.728183   -0.057345   -0.343643
C     -2.998915   -1.226215   -0.943477
O     -3.606246   -1.994405   -1.734345
O     -1.693511   -1.543386   -0.549590
H      4.645270   -0.017580    1.293721
H      4.610785   -1.719496    0.696541
H      3.502385   -1.216589    2.028881
H      2.314668   -1.416722   -0.160917
H      3.437903   -0.206262   -0.889353
H      2.679762    1.480876    0.852492
H      1.485949    0.303523    1.467529
H      1.631426    1.497020   -1.385592
H      0.506108    2.012756   -0.113923
H      0.579548   -0.699847   -1.583326
H     -0.637237    0.573879   -1.748984
H     -0.129292   -1.192145    0.730837
H     -0.958832    1.150735    1.401322
H     -2.031942   -0.204053    1.832201
H     -3.324241    1.690119    0.870748
H     -2.371928    1.619123   -0.640893
H     -4.393766    0.403038   -1.105356
H     -4.362061   -0.432213    0.488560
