47

C      2.245584   -0.912620    1.820333
C      2.569495   -0.863345    0.318943
C      3.675710    0.190800    0.006316
C      3.557385    0.643545   -1.466161
C      2.139052    1.193588   -1.758134
C      1.099654    0.655757   -0.741467
O      1.373467   -0.702705   -0.443385
O     -0.194771    0.762984   -1.309597
C     -1.210880    0.801571   -0.321847
C     -2.519451    1.302183   -1.010240
C     -3.511234    0.139769   -1.215859
C     -3.793751   -0.566959    0.133863
C     -2.530379   -0.564575    1.041002
O     -1.357612   -0.495326    0.248485
C     -2.478328   -1.830812    1.907135
O     -1.399049   -1.770127    2.799942
O     -4.846193    0.097233    0.787521
N     -2.966595   -0.816874   -2.186563
O     -3.133610    2.295519   -0.227569
O      1.777754    0.834519   -3.070081
N      4.566115    1.651133   -1.804616
O      4.954753   -0.324834    0.288160
O      1.377070   -1.977140    2.096234
H      1.756842    0.033392    2.135604
H      3.183588   -1.021524    2.412864
H      2.977130   -1.860932    0.043515
H      3.525659    1.083582    0.654238
H      3.728285   -0.251118   -2.109834
H      2.151973    2.306659   -1.664090
H      1.184154    1.285134    0.177778
H     -0.944328    1.529747    0.481585
H     -2.283663    1.739313   -2.010135
H     -4.464961    0.549270   -1.624184
H     -4.112770   -1.614085   -0.085047
H     -2.574907    0.306244    1.739249
H     -3.431618   -1.956333    2.470220
H     -2.349287   -2.722169    1.256174
H     -1.678320   -1.174410    3.544358
H     -5.194167   -0.522640    1.480206
H     -3.693709   -1.545168   -2.379295
H     -2.819051   -0.320364   -3.095113
H     -2.593331    3.121923   -0.337575
H      1.140801    1.522234   -3.398841
H      5.515736    1.217000   -1.740311
H      4.530565    2.428489   -1.105037
H      5.125380   -1.073840   -0.341013
H      1.925812   -2.803689    2.083671
