25

C      3.742215   -0.738792    0.245817
C      3.102867    0.451439   -0.468869
C      1.813315    0.932397    0.214034
C      0.650090   -0.055454    0.040834
C     -0.645494    0.514068    0.628697
C     -1.782238   -0.458364    0.455723
O     -1.783405   -1.501084    1.093590
C     -2.924587   -0.161676   -0.475401
C     -4.144417    0.210119    0.309232
O     -4.372018    1.418491    0.580527
O     -5.009727   -0.772395    0.781595
H      4.725271   -0.963062   -0.219211
H      3.904759   -0.506389    1.319746
H      3.104076   -1.641850    0.154542
H      3.833018    1.289647   -0.469100
H      2.898555    0.184255   -1.528479
H      1.528396    1.906486   -0.240822
H      2.003107    1.108438    1.295742
H      0.891424   -1.009659    0.556407
H      0.498622   -0.264017   -1.041427
H     -0.886496    1.477482    0.129000
H     -0.510805    0.720027    1.712898
H     -3.134996   -1.055307   -1.101056
H     -2.661781    0.668828   -1.165659
H     -4.839750   -1.753629    0.595905
