30

C      0.231864    0.781049    0.445568
C      0.321223   -0.595226   -0.275804
C      1.487776   -1.426208    0.308597
C      2.858960   -0.741974    0.034893
C      2.777738    0.806807   -0.104591
C      1.641054    1.416849    0.738438
F      1.964126    1.218813    2.073662
F      1.618560    2.787466    0.531344
F      2.597730    1.159499   -1.432813
F      3.981148    1.361359    0.302338
F      3.726038   -1.061891    1.068791
F      3.402066   -1.257115   -1.132287
F      1.486216   -2.691019   -0.259078
F      1.318971   -1.575552    1.678011
C     -1.069233   -1.306591   -0.197580
N     -2.196808   -0.328067   -0.132957
C     -1.953766    0.908571   -0.924704
C     -0.722938    1.695659   -0.373838
F     -0.044657    2.267400   -1.440187
F     -1.161251    2.723784    0.448151
F     -1.747421    0.580900   -2.258067
F     -3.060590    1.742867   -0.870177
C     -3.511400   -0.950747   -0.421886
F     -3.638930   -2.158478    0.244002
F     -3.671365   -1.173452   -1.780020
F     -4.530685   -0.127111    0.021795
F     -1.208530   -2.140969   -1.299335
F     -1.121149   -2.095706    0.941035
F      0.601242   -0.401603   -1.624141
F     -0.375989    0.580685    1.682713
