50

C      2.330202   -0.812427   -1.526838
C      0.945029   -1.218191   -1.022539
N      0.220231   -0.020036   -0.560568
C      0.900744    0.537667    0.629742
C      2.373030    0.751823    0.392726
C      3.062048    0.061369   -0.533809
C      4.535609    0.234064   -0.659978
C      5.349202    0.336530    0.485797
C      6.740788    0.505248    0.370358
C      7.323524    0.517032   -0.907323
C      6.526554    0.405354   -2.047411
C      5.142660    0.266421   -1.927911
C      7.607362    0.568316    1.603359
F      7.980573   -0.712894    1.963576
F      6.920556    1.150548    2.654680
F      8.745284    1.318778    1.363054
C     -1.187441   -0.362048   -0.257419
C     -2.065853    0.896051   -0.216806
C     -3.521326    0.524198   -0.108531
C     -4.088282    0.253604    1.147145
C     -5.435296   -0.125145    1.250676
C     -6.010130   -0.390135    2.503645
C     -7.353514   -0.766010    2.594090
C     -8.131165   -0.880916    1.438760
C     -7.570758   -0.621432    0.184602
C     -6.223133   -0.243017    0.079907
C     -5.648030    0.015794   -1.172223
C     -4.305423    0.391214   -1.265141
H      2.211314   -0.249756   -2.478033
H      2.924131   -1.729283   -1.732282
H      0.407195   -1.699625   -1.869434
H      1.041647   -1.966195   -0.201742
H      0.462781    1.524021    0.886481
H      0.785488   -0.135993    1.508428
H      2.888798    1.424272    1.067345
H      4.902402    0.263525    1.469651
H      8.396157    0.607645   -1.024336
H      6.983693    0.422879   -3.028383
H      4.549244    0.191150   -2.829630
H     -1.269065   -0.918176    0.704447
H     -1.598214   -1.022510   -1.055088
H     -1.791263    1.531738    0.651019
H     -1.893623    1.497685   -1.136290
H     -3.478086    0.337168    2.039516
H     -5.422648   -0.305999    3.410174
H     -7.793119   -0.968721    3.562372
H     -9.170809   -1.172152    1.515348
H     -8.188418   -0.716350   -0.700559
H     -6.235042   -0.075320   -2.078392
H     -3.875609    0.578240   -2.241368
