46

C     -2.083873    1.292940   -1.462012
C     -2.283076    0.537658   -0.106465
C     -1.848417    1.434726    1.074405
C     -0.321201    1.679723    1.046193
C      0.501844    0.357976    0.982846
C      0.019221   -0.599437   -0.151352
C     -1.507943   -0.783985   -0.008775
C     -2.241387   -1.725910   -0.956212
C     -3.715211   -1.294021   -0.840616
C     -3.730298    0.015636   -0.018723
O     -4.661896    0.936283   -0.526612
C      0.770957   -1.966169   -0.131437
C      2.019267   -2.003599    0.771843
C      2.863693   -0.714369    0.722486
C      2.008242    0.537835    0.831508
C      2.617961    1.735968    0.666600
C      4.085495    1.810574    0.322079
C      4.464883    0.684793   -0.610926
O      5.370076    0.841387   -1.415506
C      3.748823   -0.644266   -0.538536
H     -2.655060    2.245632   -1.453426
H     -2.445328    0.696203   -2.324746
H     -1.030669    1.557302   -1.667743
H     -2.115513    0.955258    2.042168
H     -2.381696    2.409108    1.030077
H     -0.040016    2.237570    1.965818
H     -0.079148    2.331144    0.182260
H      0.336033   -0.150945    1.959080
H      0.248782   -0.129211   -1.130547
H     -1.668379   -1.210554    1.013131
H     -1.873021   -1.598983   -1.997517
H     -2.117155   -2.787824   -0.652834
H     -4.140714   -1.133372   -1.855578
H     -4.313332   -2.075525   -0.323312
H     -3.979235   -0.222309    1.043347
H     -5.560627    0.574687   -0.310176
H      1.073354   -2.224273   -1.170004
H      0.101686   -2.784826    0.209809
H      1.686358   -2.163731    1.821302
H      2.645608   -2.882225    0.503379
H      3.542112   -0.736215    1.605479
H      2.072193    2.669682    0.720299
H      4.300767    2.791731   -0.153246
H      4.686287    1.726906    1.252169
H      4.499499   -1.463574   -0.506320
H      3.130052   -0.765395   -1.453655
