18

C      0.281123   -0.397995   -0.206676
C      1.161178    0.800990    0.167317
C      2.505063    0.336526    0.641041
O      3.470579    0.279599   -0.165194
O      2.687560   -0.074653    1.958106
C     -1.098573    0.045160   -0.727142
C     -1.876657   -1.139407   -1.242949
O     -2.179050   -2.060743   -0.500445
N     -1.848486    0.742052    0.321439
H      0.795660   -0.985728   -0.999840
H      0.153262   -1.056191    0.681723
H      1.289413    1.465051   -0.715487
H      0.679127    1.391725    0.975536
H      1.922848   -0.058231    2.622329
H     -0.944946    0.746038   -1.577782
H     -2.173113   -1.176353   -2.286191
H     -2.064983    0.076142    1.099201
H     -2.760003    1.066018   -0.077225
