19

C     -2.443978    1.120843   -0.017221
C     -1.264086    1.834529    0.206701
C     -0.049213    1.156085    0.344490
C     -0.007004   -0.249076    0.269467
C     -1.198570   -0.956087    0.029237
C     -2.410858   -0.272831   -0.107928
C      1.303592   -0.996076    0.380169
C      1.991806   -1.011625   -0.954593
O      1.882954   -2.020132   -1.700922
O      2.715663    0.090677   -1.403315
O      2.142617   -0.402332    1.336848
H     -3.383128    1.647981   -0.124875
H     -1.290121    2.914697    0.270542
H      0.855388    1.726869    0.510552
H     -1.189047   -2.035880   -0.053474
H     -3.324617   -0.824221   -0.288273
H      1.110575   -2.051941    0.684911
H      2.812836    0.926030   -0.839376
H      1.745190   -0.597510    2.225898
