30

C      1.625974   -0.536668   -0.630959
C      0.599300    0.543972   -0.998144
O     -0.713652    0.046136   -0.820028
C     -1.231571    0.440968    0.434832
C     -2.601191   -0.225657    0.670678
C     -3.662663    0.287715   -0.326873
O     -3.340238   -0.074695   -1.642666
N     -3.049406    0.015359    2.048283
C      3.075600   -0.095531   -0.927501
C      3.485068    1.056642   -0.046459
O      3.553296    0.913261    1.203282
O      3.782598    2.290315   -0.611576
N      4.001264   -1.220738   -0.749961
H      1.525277   -0.802237    0.443750
H      1.396320   -1.448683   -1.224451
H      0.796645    1.485307   -0.432106
H      0.719743    0.795368   -2.073418
H     -0.542643    0.128619    1.252713
H     -1.353518    1.547736    0.473446
H     -2.484691   -1.324288    0.528366
H     -3.731459    1.395068   -0.267974
H     -4.664757   -0.120805   -0.062687
H     -3.528194   -1.046156   -1.723994
H     -3.164744    1.040769    2.222140
H     -2.351653   -0.371977    2.724537
H     -3.962518   -0.466586    2.216070
H      3.131981    0.236077   -1.989324
H      3.947582   -1.593491    0.226421
H      4.980785   -0.909694   -0.946526
H      3.761465   -1.986108   -1.421461
