42

C     -3.171529   -1.753617    0.196956
C     -1.703317   -1.446200   -0.122549
C     -1.337802   -1.787464   -1.581869
C     -0.293760   -0.749567   -2.052871
C     -0.100365    0.222336   -0.880309
C     -1.375070    0.038202   -0.028144
C     -1.276141    0.726839    1.347354
C     -0.725527    2.166278    1.163337
C      0.441504    2.216319    0.126586
C     -0.040111    1.691242   -1.232144
O      1.456786    1.336708    0.563901
C      1.285879    0.123197   -0.151540
C      1.616694   -1.105426    0.759521
C      1.938168   -2.367719   -0.056912
C      2.821204   -0.797862    1.668031
C      1.001267    3.636715    0.004013
H     -3.393067   -1.486802    1.251803
H     -3.855498   -1.184361   -0.468540
H     -3.365152   -2.838953    0.062519
H     -1.073688   -2.040886    0.566201
H     -2.234043   -1.713948   -2.237757
H     -0.949776   -2.824609   -1.662470
H      0.655506   -1.240100   -2.353944
H     -0.689615   -0.208438   -2.940778
H     -2.217480    0.554903   -0.550993
H     -0.627658    0.166641    2.045215
H     -2.283565    0.776616    1.813632
H     -1.551420    2.828771    0.821623
H     -0.375376    2.545117    2.148201
H     -1.008181    2.137750   -1.552929
H      0.715384    1.876536   -2.030657
H      2.071069    0.129324   -0.944132
H      0.781093   -1.342144    1.436755
H      1.043177   -2.743409   -0.577809
H      2.738158   -2.167027   -0.801247
H      2.278075   -3.187004    0.612249
H      2.578892    0.025666    2.372845
H      3.705735   -0.507666    1.060868
H      3.084861   -1.685349    2.282639
H      0.216726    4.331937   -0.364420
H      1.361260    3.993573    0.992493
H      1.856704    3.653881   -0.704731
