33

C      6.978304   -1.440838   -0.353143
C      5.495962   -1.584880   -0.226409
C      4.679569   -0.574564   -0.531022
C      3.219488   -0.715164   -0.406600
C      2.403642    0.296055   -0.711388
C      0.943521    0.155566   -0.586696
C      0.126665    1.170280   -0.888970
C     -1.375063    1.067740   -0.774156
C     -1.820944    0.807541    0.680346
C     -3.310424    0.955355    0.839123
C     -4.160550   -0.010638    0.459780
C     -5.646159    0.143584    0.619690
N     -6.013203    0.096138    2.031752
O     -1.875743    0.096500   -1.660071
H      7.337796   -0.623411    0.307115
H      7.474025   -2.387862   -0.053560
H      7.248546   -1.211974   -1.405736
H      5.092331   -2.529718    0.119288
H      5.097432    0.365293   -0.875734
H      2.805349   -1.656606   -0.061534
H      2.818103    1.237388   -1.056269
H      0.531955   -0.785409   -0.240921
H      0.545280    2.110244   -1.230945
H     -1.792173    2.050599   -1.085696
H     -1.503373   -0.201741    1.022258
H     -1.330308    1.553158    1.343529
H     -3.693379    1.862574    1.298659
H     -3.779980   -0.921777    0.006911
H     -6.148769   -0.691577    0.085128
H     -5.983912    1.100396    0.162180
H     -5.720474    0.994887    2.479644
H     -7.057056    0.067665    2.087492
H     -1.586459   -0.794800   -1.333026
