46

C     -1.754218    1.785946   -0.476770
C     -2.038667    0.369002    0.038961
C     -1.971465   -0.715136   -1.073080
C     -2.737505   -1.892992   -0.439967
C     -3.161160   -1.328037    0.938126
C     -3.447653    0.152707    0.641060
C     -3.774704    0.999131    1.910320
C     -4.643818    0.373829   -0.336979
C     -1.875020   -1.280661    1.799180
C     -1.095358   -0.090453    1.197196
O      0.186983   -0.521312    0.734340
C      1.262556    0.344007    0.501866
O      1.186827    1.556388    0.844037
C      2.492765   -0.172822   -0.136927
C      3.599754    0.668490   -0.352876
C      4.768964    0.174566   -0.965634
C      4.822289   -1.168665   -1.362032
C      3.722041   -2.008135   -1.149753
C      2.565873   -1.515233   -0.542530
O      5.975970   -1.662881   -1.968545
O      5.892500    0.984075   -1.196533
C      5.979707    2.362017   -0.848278
H     -0.762029    1.819592   -0.972144
H     -2.517598    2.090433   -1.222402
H     -1.761209    2.514388    0.360852
H     -0.932886   -1.003388   -1.341197
H     -2.462065   -0.375318   -2.010125
H     -2.092229   -2.794099   -0.347383
H     -3.624711   -2.173260   -1.046874
H     -3.998486   -1.883660    1.412621
H     -3.886905    2.069579    1.635957
H     -4.734056    0.655252    2.352939
H     -3.020502    0.953023    2.715998
H     -4.777884    1.457304   -0.541280
H     -4.548137   -0.125566   -1.317838
H     -5.579987   -0.004833    0.126342
H     -2.119702   -1.104766    2.868408
H     -1.299519   -2.231271    1.743895
H     -0.962937    0.702919    1.965325
H      3.548132    1.703541   -0.043728
H      3.761990   -3.045620   -1.456600
H      1.729172   -2.186295   -0.393153
H      6.046431   -2.628808   -2.266790
H      5.199281    2.941770   -1.384988
H      6.976034    2.748464   -1.145459
H      5.863143    2.486788    0.249023
