44

C      6.044247   -1.440843    0.314688
C      4.521598   -1.452417    0.185576
C      3.822163   -0.583781    1.246863
C      4.129586    0.922686    1.152598
C      3.662719    1.602097   -0.148995
C      2.128682    1.634505   -0.315985
C      1.625503    0.577238   -1.310387
C      0.133806    0.645250   -1.462858
C     -0.686359    0.226739   -0.491478
C     -2.163311    0.272747   -0.619828
C     -2.762859    1.396587   -1.210885
C     -4.148490    1.499492   -1.279200
O     -4.665745    2.518336   -1.813843
C     -4.948618    0.478259   -0.747498
C     -6.354343    0.551534   -0.793316
C     -7.131829   -0.476438   -0.258654
C     -6.521065   -1.585195    0.325237
C     -5.128516   -1.674231    0.378776
C     -4.321503   -0.646873   -0.153759
N     -2.951311   -0.733183   -0.108695
O     -2.382712   -1.876579    0.428710
H      6.477956   -2.200463   -0.369314
H      6.453848   -0.449568    0.030182
H      6.349614   -1.685979    1.354092
H      4.171450   -2.499565    0.313329
H      4.234417   -1.138098   -0.838472
H      2.725423   -0.742886    1.184565
H      4.129026   -0.939841    2.254498
H      5.220956    1.087164    1.272844
H      3.645568    1.432911    2.013889
H      4.022189    2.653796   -0.109220
H      4.161739    1.148933   -1.031446
H      1.836565    2.636089   -0.703011
H      1.625743    1.509476    0.667880
H      1.911826   -0.444088   -0.986668
H      2.090748    0.761970   -2.302914
H     -0.268994    0.998412   -2.404526
H     -0.256566   -0.171068    0.419605
H     -2.155668    2.208936   -1.593181
H     -6.854593    1.401355   -1.241521
H     -8.211717   -0.413229   -0.297373
H     -7.128987   -2.379868    0.738317
H     -4.688847   -2.549050    0.839884
H     -1.393339   -2.081268    0.380427
