32

C     -0.168710   -0.799845    1.681424
C      0.460168    0.490632    1.109605
C     -0.237240    0.990539   -0.207286
C     -1.628347    0.454561   -0.448437
C     -2.277189   -0.316230    0.532361
O     -1.588294   -0.717329    1.676182
C     -3.615649   -0.686547    0.364353
C     -4.307569   -0.319298   -0.794308
C     -3.658862    0.432869   -1.782936
C     -2.328722    0.825580   -1.606775
O     -5.636319   -0.705955   -0.953606
O      0.648915    0.629441   -1.266938
C      1.868914    0.250954   -0.748500
C      1.841434    0.197590    0.618478
C      2.972866   -0.174338    1.348758
C      4.152195   -0.477355    0.647983
C      4.178344   -0.417846   -0.763675
C      3.020647   -0.051739   -1.472140
O      5.343472   -0.721215   -1.463832
O      0.502850    1.504827    2.081549
H      0.185335   -0.973841    2.719847
H      0.127491   -1.680526    1.068250
H     -0.298577    2.101750   -0.182123
H     -4.112628   -1.273005    1.126925
H     -4.188471    0.725751   -2.680527
H     -1.849487    1.433771   -2.364049
H     -6.164845   -0.455949   -1.781278
H      2.940138   -0.236143    2.428736
H      5.039682   -0.764795    1.196959
H      3.021441   -0.002680   -2.553326
H      6.194485   -0.989082   -0.983412
H     -0.437468    1.725451    2.311999
