42

C     -2.274464    2.544115   -0.655240
C     -1.083596    2.078518    0.205021
C      0.244006    2.573684   -0.406649
C      1.477700    1.938293    0.248966
C      1.967565    0.712734   -0.545905
C      1.036331   -0.485442   -0.807403
C      2.223087   -0.632841    0.174324
C      2.069966   -0.713238    1.706086
C      3.435221   -1.393371   -0.385622
C     -0.504759   -0.444210   -0.475691
C     -1.061211    0.557362    0.567896
C     -2.415043   -0.035038    0.964883
C     -2.220941   -1.548776    0.925886
C     -0.944512   -1.812112    0.106520
C     -1.148600   -2.910961   -0.949941
O     -1.208587   -0.251156   -1.684944
H     -3.222894    2.464808   -0.084374
H     -2.154700    3.616101   -0.922007
H     -2.365004    1.966331   -1.594343
H     -1.195979    2.618372    1.173476
H      0.263053    2.406560   -1.505563
H      0.298942    3.675771   -0.262114
H      1.311398    1.758251    1.327146
H      2.303405    2.681082    0.212547
H      2.622453    0.934529   -1.417148
H      1.245160   -0.963026   -1.790335
H      1.037086   -0.770353    2.066156
H      2.546656   -1.647459    2.070742
H      2.607557    0.124775    2.195325
H      4.360661   -1.036508    0.113535
H      3.314719   -2.478515   -0.184442
H      3.557467   -1.257289   -1.481895
H     -0.472945    0.491460    1.493444
H     -2.732193    0.309266    1.973762
H     -3.202242    0.225181    0.226869
H     -2.093567   -1.939488    1.959670
H     -3.117712   -2.034365    0.480497
H     -0.167673   -2.188013    0.805384
H     -0.218190   -3.053132   -1.538913
H     -1.980198   -2.656739   -1.641134
H     -1.392393   -3.871616   -0.448380
H     -0.745031    0.446455   -2.216093
