42

C      2.416982   -3.437487    0.738540
C      1.934074   -2.128320    0.167309
C      2.793559   -1.081467    0.164495
C      2.465891    0.305541   -0.328111
C      2.010498    1.207973    0.828800
C      1.150401    2.349524    0.327956
C     -0.203234    2.327333    0.358129
C     -1.054067    1.196964    0.901005
C     -1.112615   -0.032959   -0.066913
C     -0.449922   -1.307187    0.561821
C      0.521825   -2.045700   -0.393285
C     -2.551795   -0.331068   -0.639663
C     -3.031727    0.831353   -1.540382
C     -3.606869   -0.556951    0.468272
O     -2.511203   -1.506106   -1.417747
C      1.832562    3.549243   -0.275901
H      3.283890   -3.806936    0.150819
H      1.623813   -4.213600    0.718863
H      2.728762   -3.293364    1.794841
H      3.786245   -1.219496    0.586465
H      3.385268    0.741951   -0.774817
H      1.724818    0.276568   -1.148608
H      2.910651    1.624154    1.331594
H      1.490783    0.633811    1.616930
H     -0.741209    3.193240   -0.021294
H     -2.060904    1.624739    1.058377
H     -0.722090    0.930026    1.925024
H     -0.512758    0.246325   -0.957351
H      0.070570   -1.074566    1.511908
H     -1.227253   -2.032596    0.875021
H      0.546784   -1.614942   -1.414941
H      0.129323   -3.073560   -0.551729
H     -2.297263    1.030205   -2.349940
H     -3.171940    1.767428   -0.961094
H     -4.002048    0.571370   -2.015641
H     -4.550936   -0.928448    0.014360
H     -3.856525    0.376541    1.011374
H     -3.278168   -1.312047    1.208599
H     -1.877697   -1.358030   -2.168438
H      1.574631    4.460364    0.304289
H      2.936667    3.430071   -0.270689
H      1.502227    3.680107   -1.328246
