16

C     -1.497407    1.230008   -0.235225
C     -0.813473   -0.075488    0.070923
C     -1.210476   -0.793560    1.132037
C      0.297262   -0.586032   -0.820376
C      1.663747   -0.462672   -0.144677
O      1.955501    0.884822    0.104615
H     -2.576538    1.052942   -0.428774
H     -1.390591    1.920760    0.627871
H     -1.055051    1.719372   -1.127925
H     -0.741853   -1.744125    1.368666
H     -2.011172   -0.439762    1.774901
H      0.319737   -0.022310   -1.777906
H      0.106663   -1.651177   -1.076409
H      2.437182   -0.891852   -0.819819
H      1.671079   -1.037601    0.808418
H      2.845390    0.896676    0.543680
