14

C      0.487850    0.934060    0.800714
C     -0.897842    0.775484    0.694703
C     -1.431058   -0.209445   -0.149185
C     -0.571417   -1.033059   -0.884848
C      0.814505   -0.875632   -0.779843
C      1.347163    0.108570    0.063428
C      2.773301    0.271168    0.172006
N      3.919835    0.401887    0.259296
O     -2.809224   -0.377046   -0.263210
H      0.888328    1.698394    1.455901
H     -1.555166    1.417145    1.267558
H     -0.977675   -1.795029   -1.537850
H      1.469167   -1.519673   -1.354710
H     -3.457767    0.203174    0.256039
