26

C      1.104294    0.840424    1.441805
C      2.372693    1.376907    1.200370
C      3.258228    0.728092    0.333797
C      2.869049   -0.462719   -0.294366
C      1.601169   -1.001110   -0.054757
C      0.712064   -0.357405    0.821534
C     -0.666684   -0.921923    1.051963
C     -1.631285   -0.516453   -0.076143
C     -2.959521   -1.190002    0.109860
O     -3.724269   -0.840512    1.049367
O     -3.337637   -2.221114   -0.744386
N     -1.815991    0.937830   -0.102786
C     -2.083640    1.659233   -1.309840
O     -2.105667    1.072793   -2.424432
O      4.518634    1.274265    0.102487
H      0.428446    1.359412    2.110064
H      2.666805    2.299212    1.685013
H      3.546331   -0.969521   -0.969920
H      1.310649   -1.917717   -0.553213
H     -0.599127   -2.031581    1.100825
H     -1.062478   -0.579587    2.034090
H     -1.195282   -0.858200   -1.041568
H     -4.226824   -2.692262   -0.628143
H     -1.890879    1.459470    0.799870
H     -2.271562    2.723729   -1.266193
H      5.182485    0.828739   -0.520164
