25

C      2.563467   -1.435963    1.411253
C      2.476819   -2.046764    0.017300
O      1.267100   -1.654470   -0.627559
C      1.062918   -0.381791   -1.172358
O      1.988874    0.475754   -1.170999
C     -0.291807   -0.024936   -1.710407
C     -1.122851    0.588343   -0.610172
C     -0.906378    1.918282   -0.203060
C     -1.655678    2.468077    0.841576
C     -2.618453    1.695281    1.495510
C     -2.830695    0.369544    1.109114
C     -2.084023   -0.185126    0.064978
O     -0.177013    0.875352   -2.782832
H      2.601873   -0.328496    1.347407
H      3.482195   -1.795963    1.920287
H      1.678098   -1.735115    2.011277
H      3.356728   -1.746191   -0.592135
H      2.484424   -3.153049    0.111660
H     -0.786391   -0.956162   -2.073579
H     -0.155820    2.527057   -0.691691
H     -1.486759    3.492630    1.146938
H     -3.196408    2.122109    2.304981
H     -3.571694   -0.230299    1.621575
H     -2.254264   -1.217519   -0.214257
H      0.175737    0.359414   -3.554807
