49

C      3.365744   -2.928496    1.716001
C      2.811619   -1.645722    1.135102
C      3.625648   -0.700811    0.571200
C      3.056362    0.634117    0.027562
C      1.592389    0.875800    0.492392
C      0.738103   -0.386349    0.376509
C      1.320831   -1.438234    1.312696
O     -0.588880   -0.103555    0.791482
C     -1.415489    0.274887   -0.297108
C     -2.108586   -0.998984   -0.879161
C     -3.579262   -1.086073   -0.421854
C     -4.346878    0.221970   -0.754355
C     -3.393123    1.445659   -0.731669
O     -2.347051    1.228507    0.196961
C     -4.133656    2.736503   -0.360993
O     -4.563509    2.687808    0.973022
O     -4.935992    0.126813   -2.027275
O     -3.610840   -1.319491    0.963910
O     -2.047966   -0.962926   -2.284817
C      3.100341    0.623412   -1.520144
C      3.885763    1.835185    0.548891
C      5.079879   -1.002321    0.396524
O      5.825141   -0.288836   -0.325426
H      3.856119   -3.530293    0.920550
H      2.564570   -3.552689    2.164134
H      4.092321   -2.695580    2.523990
H      1.577142    1.209438    1.556532
H      1.131540    1.700369   -0.096684
H      0.774851   -0.801721   -0.658164
H      0.783083   -2.394771    1.132216
H      1.132737   -1.144707    2.369629
H     -0.822299    0.779603   -1.102064
H     -1.569603   -1.909764   -0.519775
H     -4.056948   -1.949499   -0.945239
H     -5.151021    0.361988    0.008231
H     -2.972618    1.607493   -1.754488
H     -3.440257    3.597246   -0.499719
H     -5.009373    2.878963   -1.034488
H     -4.915640    3.592777    1.184335
H     -5.734851   -0.457945   -1.934991
H     -4.506882   -1.701888    1.171315
H     -2.217207   -1.892186   -2.603708
H      2.600446   -0.280039   -1.931117
H      4.143212    0.630800   -1.899216
H      2.597976    1.523743   -1.935092
H      4.000131    1.777431    1.653792
H      3.380104    2.794959    0.302820
H      4.893320    1.887820    0.093494
H      5.538554   -1.860411    0.868178
