45

C     -7.153940    0.212809    0.601060
C     -6.072280   -0.646854   -0.058491
C     -4.680681   -0.042820    0.189184
C     -3.566111   -0.943789   -0.361167
C     -2.183516   -0.341535   -0.083102
C     -1.070027   -1.237753   -0.645417
C      0.334979   -0.737231   -0.275124
C      0.705623    0.571338   -0.995319
C      2.191354    0.929811   -0.835326
C      2.553987    1.308376    0.611139
C      3.954586    1.935745    0.731840
C      5.112325    1.026090    0.281970
C      5.224209   -0.256142    1.116522
C      6.467964   -1.005618    0.757137
O      6.451462   -1.841962   -0.185356
O      7.654240   -0.745544    1.435955
O     -6.312356   -0.725501   -1.439949
H     -6.982769    0.274453    1.697011
H     -8.153324   -0.240224    0.429172
H     -7.148973    1.238466    0.173684
H     -6.105364   -1.665446    0.395167
H     -4.528616    0.088557    1.283598
H     -4.620422    0.958239   -0.292941
H     -3.633865   -1.945660    0.117435
H     -3.696142   -1.067122   -1.458786
H     -2.128372    0.662786   -0.554913
H     -2.047249   -0.226865    1.014847
H     -1.188838   -2.262389   -0.229457
H     -1.164688   -1.310954   -1.751140
H      1.064826   -1.526575   -0.559488
H      0.397280   -0.599739    0.825709
H      0.083582    1.409154   -0.614148
H      0.495596    0.460329   -2.081605
H      2.811535    0.072150   -1.173405
H      2.410938    1.792319   -1.501929
H      2.482212    0.420166    1.272067
H      1.818606    2.053920    0.985019
H      4.120122    2.231024    1.790963
H      3.983318    2.869156    0.128357
H      6.055683    1.606403    0.387470
H      5.006344    0.771623   -0.794160
H      5.253672   -0.003234    2.198404
H      4.346425   -0.911691    0.933293
H      8.508784   -1.232556    1.193608
H     -7.052121   -1.375710   -1.566118
