45

C      6.186860   -1.617361    0.062479
C      4.802933   -1.455073   -0.046072
C      4.239957   -0.169304   -0.226006
C      5.116646    0.943728   -0.292129
C      6.499857    0.765139   -0.180956
C      7.037214   -0.510035   -0.004304
O      8.417326   -0.666218    0.103646
O      4.644299    2.171743   -0.460240
C      3.352460    2.442529   -0.575474
O      2.995629    3.641317   -0.733034
C      2.399754    1.408848   -0.522193
C      2.843961    0.073669   -0.344245
C      1.873988   -0.953291   -0.296070
C      0.513586   -0.662383   -0.414937
C      0.077524    0.661111   -0.580578
C      1.024679    1.684655   -0.641743
O     -1.277765    1.011107   -0.704863
C     -2.398060    0.167934   -0.425980
C     -2.586334    0.031235    1.108507
C     -4.079109   -0.137868    1.494617
C     -4.875866   -0.837265    0.368782
C     -4.638135   -0.134797   -1.005123
O     -3.547082    0.774992   -0.983161
C     -5.866875    0.618930   -1.423356
O     -6.696983    0.087633   -2.208868
O     -6.115537    1.887036   -0.906918
O     -4.484602   -2.183746    0.270316
O     -4.635507    1.128970    1.744900
O     -1.809901   -1.021527    1.624057
H      6.598512   -2.609462    0.199513
H      4.203729   -2.348834    0.014741
H      7.160113    1.622257   -0.232424
H      8.838904   -1.578896    0.230814
H      2.135774   -1.991172   -0.171589
H     -0.184269   -1.485158   -0.388725
H      0.676425    2.701670   -0.777323
H     -2.234375   -0.823539   -0.907695
H     -2.217999    0.965484    1.588303
H     -4.142896   -0.747724    2.427064
H     -5.960992   -0.808022    0.632964
H     -4.443739   -0.902809   -1.789915
H     -6.949835    2.398720   -1.167314
H     -4.880936   -2.659254    1.047012
H     -5.475091    0.981640    2.253858
H     -2.138242   -1.866606    1.221953
