42

C     -2.535535    2.441755   -1.850794
C     -2.181536    1.393027   -0.796903
C     -3.451361    0.896952   -0.054411
C     -3.257001   -0.540339    0.500174
C     -1.768488   -0.804329    0.789291
C     -0.905538   -0.549992   -0.484503
O     -1.541646    0.301601   -1.430869
O      0.347346    0.018350   -0.131604
C      1.326488   -0.965305    0.182600
C      2.029999   -0.575909    1.493291
C      2.852968    0.712844    1.284551
C      3.772810    0.582570    0.050737
O      3.033604    0.221528   -1.108470
C      2.385010   -1.031874   -0.942691
C      1.751313   -1.435875   -2.241529
O      1.304009   -0.564655   -3.034055
O      1.604892   -2.782300   -2.550923
O      4.815395   -0.330347    0.289427
O      3.592791    1.045287    2.433928
O      1.073028   -0.383865    2.502625
O     -1.586051   -2.124080    1.234576
O     -3.719344   -1.485436   -0.432778
O     -3.800327    1.790721    0.974288
H     -3.049418    3.304972   -1.376570
H     -1.608440    2.808260   -2.340615
H     -3.197981    2.004864   -2.628499
H     -1.482932    1.884558   -0.078402
H     -4.305610    0.872356   -0.767229
H     -3.826713   -0.655143    1.452932
H     -1.441188   -0.097310    1.587684
H     -0.779438   -1.521103   -1.017845
H      0.902711   -1.986632    0.337922
H      2.712289   -1.411991    1.780187
H      2.145984    1.549757    1.090504
H      4.219319    1.586201   -0.131360
H      3.129546   -1.824228   -0.698632
H      5.420377   -0.275144   -0.495510
H      4.163244    0.266845    2.666059
H      1.551406   -0.449913    3.369931
H     -1.911370   -2.158566    2.172032
H     -4.709710   -1.497953   -0.362480
H     -3.074899    1.769842    1.651863
