32

C      2.496537    0.323336    1.126822
C      3.879272    0.517873    1.201656
C      4.692808    0.217934    0.104167
C      4.116193   -0.273643   -1.074810
C      2.733884   -0.468885   -1.151781
C      1.916483   -0.192275   -0.042159
C      0.449794   -0.345700   -0.122344
C     -0.142613   -1.509451   -0.478724
C     -1.648207   -1.628370   -0.600466
C     -2.402127   -0.337145   -0.359618
C     -3.799363   -0.277548   -0.524504
C     -4.486193    0.913508   -0.265610
C     -3.788960    2.051917    0.159042
C     -2.401289    1.996352    0.317318
C     -1.708829    0.810268    0.053259
O     -0.321796    0.779857    0.189261
O     -4.464315    3.241306    0.423219
O     -4.510550   -1.397216   -0.943166
O     -2.113193   -2.627820    0.270750
O      0.597672   -2.672599   -0.714349
O      6.068801    0.415787    0.193216
H      1.879225    0.566599    1.983135
H      4.318573    0.905581    2.112004
H      4.736646   -0.497874   -1.933112
H      2.300076   -0.829344   -2.076531
H     -1.863957   -1.954089   -1.640527
H     -5.560872    0.951949   -0.392531
H     -1.859069    2.876972    0.638286
H     -5.469476    3.314253    0.317312
H     -1.918943   -2.327159    1.197994
H      1.589080   -2.753838   -0.529724
H      6.684708    0.209464   -0.584586
