12

C     -1.682327   -0.252121    0.008568
C     -0.222614    0.060808    0.031036
C      0.352470    1.293174   -0.179646
N      1.694076    1.161715   -0.161275
C      1.898582   -0.156547    0.051243
N      0.751422   -0.852050    0.163463
H     -2.264102    0.613477    0.389584
H     -1.996558   -0.474986   -1.032133
H     -1.890611   -1.133891    0.650054
H     -0.167982    2.227170   -0.345689
H      2.880693   -0.606185    0.114351
H      0.646952   -1.880564    0.310442
