50

C     -3.093380   -0.064488   -2.172654
C     -3.080596    0.053621   -0.665135
C     -2.133994    0.800805   -0.031834
C     -2.061652    0.924403    1.499072
C     -3.370412    0.449314    2.185498
C     -3.906303   -0.832745    1.555513
C     -4.231110   -0.594637    0.081776
O     -5.372661    0.218401   -0.015969
C     -1.827649    2.398082    1.902383
C     -0.870930    0.081313    2.011211
C     -1.050750    1.435640   -0.820021
C     -0.013793    0.719215   -1.265357
C      1.107835    1.331075   -2.019215
C      2.373434    0.888483   -1.892347
C      2.791280   -0.177494   -0.954660
C      4.058174   -0.608867   -0.931297
C      4.538203   -1.655149    0.007140
C      5.835160   -1.620549    0.377730
C      6.484084   -2.518457    1.356840
O      7.740229   -2.530864    1.434798
O      5.749539   -3.310023    2.231805
C      3.589636   -2.723858    0.496355
C      0.838393    2.502425   -2.928097
H     -2.186459   -0.601918   -2.520309
H     -3.978948   -0.631700   -2.528570
H     -3.127033    0.945128   -2.634911
H     -3.204080    0.280191    3.272503
H     -4.155386    1.235043    2.102939
H     -4.826292   -1.151805    2.092291
H     -3.164361   -1.653445    1.653042
H     -4.442712   -1.593457   -0.367065
H     -5.767595    0.059270   -0.912742
H     -2.615527    3.050351    1.466936
H     -0.838505    2.762608    1.550242
H     -1.851882    2.509053    3.008058
H      0.092281    0.485031    1.632578
H     -0.825453    0.092296    3.121713
H     -0.949808   -0.972151    1.670929
H     -1.082941    2.507871   -0.964810
H      0.009331   -0.343424   -1.056060
H      3.148891    1.363968   -2.484042
H      2.081289   -0.578334   -0.244975
H      4.782641   -0.143254   -1.591403
H      6.477580   -0.864075   -0.060048
H      3.278530   -2.505201    1.539411
H      4.067849   -3.724292    0.439807
H      2.683894   -2.786024   -0.142354
H      1.524185    2.497648   -3.802690
H     -0.200085    2.462260   -3.320064
H      0.977855    3.448209   -2.363939
