19

C      0.174943   -1.975598    0.461987
C      0.043344   -0.507047    0.130800
C      1.186760    0.336173    0.124201
C      1.031196    1.715030   -0.077105
C     -0.227460    2.260569   -0.314102
C     -1.345629    1.433871   -0.379387
C     -1.225124    0.050867   -0.182540
N     -2.396821   -0.764980   -0.328447
N      2.513222   -0.184162    0.296008
H      0.361529   -2.555375   -0.465835
H      0.994240   -2.155487    1.186990
H     -0.734071   -2.359935    0.967175
H      1.894429    2.368838   -0.065494
H     -0.333286    3.326066   -0.473042
H     -2.311321    1.871333   -0.600377
H     -3.335758   -0.323382   -0.448871
H     -2.344792   -1.800785   -0.437781
H      2.729114   -1.200584    0.207517
H      3.325485    0.464589    0.398302
