48

C     -4.073344    2.081452   -1.045689
C     -3.618463    0.944943   -0.127832
C     -4.734569    0.570657    0.871628
C     -4.279475   -0.619843    1.726052
C     -3.776719   -1.764247    0.836242
C     -2.739512   -1.238050   -0.171257
O     -3.271383   -0.166743   -0.940404
O     -1.554548   -0.850678    0.509606
C     -0.451159   -0.751389   -0.377317
C      0.367920   -2.044994   -0.296248
C      0.381668    0.478770    0.036925
C      1.567493    0.783734   -0.904831
C      2.911008    0.326581   -0.315717
C      4.069972    0.649277   -1.271094
C      5.408941    0.059792   -0.800702
C      5.937463    0.733042    0.473259
C      7.312205    0.238596    0.795965
O      7.467211   -0.875426    1.362525
O      8.424780    0.986949    0.432944
O     -4.850546   -2.340984    0.137465
O     -5.018646    1.667704    1.701692
H     -4.299330    2.994593   -0.455226
H     -4.978658    1.781968   -1.616670
H     -3.264335    2.325742   -1.766956
H     -2.728859    1.317568    0.429826
H     -5.649216    0.281764    0.301310
H     -3.460742   -0.297438    2.407518
H     -5.122991   -0.975184    2.356724
H     -3.288717   -2.536861    1.475284
H     -2.525983   -2.085035   -0.864086
H     -0.765406   -0.596265   -1.438244
H     -0.285354   -2.922783   -0.479972
H      1.160311   -2.052751   -1.072439
H      0.829080   -2.153358    0.708814
H     -0.297157    1.359613    0.020533
H      0.723117    0.368973    1.090329
H      1.408339    0.317139   -1.902102
H      1.617117    1.883731   -1.065231
H      3.071869    0.852369    0.650012
H      2.888125   -0.765306   -0.120686
H      3.842877    0.220892   -2.271901
H      4.165588    1.750904   -1.389997
H      5.298398   -1.034468   -0.632197
H      6.151330    0.201585   -1.617794
H      5.269916    0.509559    1.332201
H      5.970962    1.835466    0.333513
H     -5.341537   -2.910121    0.785742
H     -5.869041    1.458559    2.168482
