49

C     -2.189975    3.689158   -0.929324
C     -2.479924    2.682066    0.143274
C     -1.552598    1.869805    0.691980
C     -1.994594    0.850977    1.719126
C     -2.704170   -0.369960    1.079840
C     -2.046883   -1.728667    1.058708
O     -1.959335   -0.837242   -0.025098
C     -0.765654   -1.896529    1.831952
O     -0.840904   -2.039319    3.079114
O      0.503074   -1.857059    1.243718
C      0.779333   -2.101778   -0.132487
C      2.136749   -1.568071   -0.474646
C      2.889802   -2.087664   -1.425835
C      4.210087   -1.420580   -1.470968
N      4.111824   -0.271355   -0.539361
C      2.853943   -0.445115    0.224263
C      2.134570    0.915084    0.192309
C      2.607920    1.534825   -1.105520
C      4.038732    1.041867   -1.222839
O      0.706029    0.839233    0.290489
C     -0.106664    1.984937    0.366588
O      0.401658    3.128179    0.207346
O      5.171916   -0.283363    0.311584
C     -2.822864   -2.993512    0.687911
C     -4.204953   -0.239828    0.740848
O     -4.385928    0.201854   -0.577701
H     -1.632489    4.549207   -0.506228
H     -3.142073    4.064636   -1.357284
H     -1.603068    3.220066   -1.747690
H     -3.516432    2.583020    0.445500
H     -1.121341    0.551399    2.330844
H     -2.686677    1.333590    2.441734
H      0.065175   -1.605655   -0.808765
H      0.733603   -3.196113   -0.314082
H      2.605654   -2.934705   -2.042693
H      4.444927   -1.130594   -2.516235
H      4.982117   -2.148519   -1.136551
H      3.047535   -0.748629    1.279056
H      2.520977    1.525992    1.040272
H      2.568363    2.644567   -1.082607
H      2.002040    1.150019   -1.956744
H      4.704948    1.780956   -0.723526
H      4.344335    1.008534   -2.289068
H     -3.442046   -3.313522    1.551199
H     -2.111416   -3.808412    0.437227
H     -3.476544   -2.833341   -0.195158
H     -4.670409    0.502079    1.422630
H     -4.756389   -1.188719    0.918698
H     -4.351985   -0.603799   -1.155797
