12

C      1.784856    0.151557   -0.367330
N      0.417537    0.525816   -0.714906
N     -0.423798   -0.564692   -0.411076
C     -1.767883   -0.046171   -0.176532
H      1.854370   -0.069471    0.719469
H      2.468537    0.995931   -0.596551
H      2.108129   -0.739311   -0.949852
H      0.383162    0.707315   -1.747579
H     -0.463697   -1.207354   -1.239285
H     -2.451016   -0.887131    0.066460
H     -2.150507    0.476168   -1.081100
H     -1.759691    0.657344    0.683595
