49

C     -5.113082    1.532087   -1.365348
C     -5.029936    1.289856    0.151755
C     -5.977446    0.167687    0.643242
C     -5.400493   -1.215011    0.324822
C     -3.940556   -1.308174    0.781380
C     -3.138267   -0.137443    0.193033
O     -3.693469    1.106007    0.602682
O     -1.812101   -0.228863    0.678720
C     -0.948474    0.578092   -0.096353
C      0.448469    0.546858    0.522187
C      1.438488    1.386360   -0.298975
C      2.810401    1.534321    0.383572
C      3.565963    0.214052    0.620355
C      3.897306   -0.529237   -0.685115
C      4.779380   -1.762922   -0.439702
C      6.160059   -1.396944    0.029093
C      7.042683   -0.810289   -0.785454
C      8.398412   -0.454561   -0.341322
O      9.193020    0.093744   -1.148736
O      8.817222   -0.713507    0.958987
O     -3.382289   -2.521374    0.348532
O     -6.162482    0.276133    2.032007
H     -4.967210    0.599205   -1.946035
H     -6.112533    1.941353   -1.625448
H     -4.342629    2.271240   -1.670928
H     -5.386963    2.235419    0.615698
H     -6.965022    0.257572    0.132052
H     -6.003655   -1.997225    0.835534
H     -5.465185   -1.406711   -0.768548
H     -3.894576   -1.247112    1.894634
H     -3.146164   -0.237702   -0.918469
H     -1.304249    1.633927   -0.119851
H     -0.885194    0.184726   -1.136762
H      0.393591    0.941047    1.560603
H      0.791527   -0.509091    0.559748
H      1.019234    2.407842   -0.432023
H      1.557331    0.951064   -1.313682
H      3.444233    2.203360   -0.238498
H      2.670289    2.041516    1.363091
H      2.985162   -0.446927    1.297724
H      4.512095    0.464841    1.146887
H      4.398313    0.159121   -1.400113
H      2.954436   -0.880497   -1.154989
H      4.296422   -2.415024    0.320127
H      4.857699   -2.352232   -1.379246
H      6.435299   -1.644597    1.047321
H      6.761652   -0.586318   -1.808013
H     -3.747633   -3.230725    0.939511
H     -6.809074    1.015056    2.179898
