39

C     -2.435669    2.284773   -0.607040
C     -2.472703    1.239126    0.512883
C     -3.701009    0.293466    0.381971
C     -3.381029   -1.046203    1.056474
C     -2.120791   -1.687311    0.441252
C     -1.190989   -0.618929   -0.185038
O     -1.221427    0.561544    0.600167
O      0.130029   -1.133626   -0.201250
C      0.927398   -0.521740   -1.202151
C      1.529767    0.815252   -0.735669
C      2.196517    0.754650    0.653603
C      3.340098   -0.268389    0.778757
C      4.519058    0.039171   -0.154317
C      5.663167   -0.882042    0.130619
O      5.719667   -2.012277   -0.422617
O      6.642671   -0.512743    1.044562
O     -2.502254   -2.619529   -0.538349
O     -4.821048    0.885561    0.988097
H     -1.584139    2.979834   -0.444003
H     -2.314143    1.800720   -1.598953
H     -3.376743    2.875476   -0.609783
H     -2.585900    1.799157    1.467934
H     -3.917826    0.103599   -0.697275
H     -3.209107   -0.867771    2.142354
H     -4.249700   -1.736103    0.967589
H     -1.581318   -2.216356    1.262435
H     -1.562104   -0.413233   -1.220087
H      0.385504   -0.379880   -2.165107
H      1.758743   -1.216271   -1.445182
H      0.728289    1.583355   -0.709693
H      2.263713    1.166534   -1.491651
H      1.425476    0.516340    1.418119
H      2.589030    1.766385    0.899856
H      2.959837   -1.296520    0.588754
H      3.700507   -0.242452    1.831693
H      4.854403    1.089391   -0.008143
H      4.213195   -0.086176   -1.215629
H     -1.702480   -3.175993   -0.730482
H     -5.616691    0.379209    0.676961
