50

C     -7.024611   -1.329370    0.939476
C     -7.221329    0.178130    1.051565
C     -5.987842    0.840162    1.605408
C     -4.949838    1.251505    0.858811
C     -4.919845    1.167729   -0.644563
C     -3.548753    1.496078   -1.170174
C     -2.540248    0.612156   -1.267211
C     -2.637036   -0.847675   -0.899284
C     -2.731647   -1.049135    0.592692
C     -1.711811   -0.879741    1.455320
C     -0.309201   -0.506409    1.053528
C      0.402928   -1.667086    0.412952
C      1.652556   -1.598240   -0.060885
C      2.481067   -0.377483   -0.013491
C      3.711429   -0.371012   -0.533340
C      4.573168    0.825849   -0.513442
O      4.191710    1.881620    0.059916
C      5.934627    0.780203   -1.139711
C      6.952146    0.149607   -0.179776
C      8.346089    0.033264   -0.808216
C      9.008130    1.369944   -0.932623
O      9.679849    1.835063    0.025189
O      8.841207    2.125776   -2.084822
H     -6.790217   -1.762204    1.932272
H     -7.958129   -1.791879    0.562657
H     -6.202113   -1.571472    0.238741
H     -8.069515    0.373214    1.740966
H     -7.499392    0.601622    0.064631
H     -5.926341    0.963320    2.679710
H     -4.100254    1.690609    1.375475
H     -5.235893    0.166729   -0.998130
H     -5.640854    1.907955   -1.052140
H     -3.362586    2.515578   -1.489321
H     -1.599351    0.964320   -1.669294
H     -3.522777   -1.300410   -1.391734
H     -1.752581   -1.386944   -1.298850
H     -3.692741   -1.358664    0.997045
H     -1.911495   -1.037184    2.509907
H      0.246892   -0.215136    1.967474
H     -0.329157    0.365985    0.371796
H     -0.116685   -2.614689    0.325463
H      2.072779   -2.492592   -0.505376
H      2.088918    0.522730    0.440705
H      4.101403   -1.270548   -0.993179
H      5.886662    0.191242   -2.080960
H      6.249299    1.813180   -1.401491
H      7.010042    0.744635    0.755801
H      6.607523   -0.871508    0.091236
H      8.275833   -0.443625   -1.808092
H      8.977985   -0.625201   -0.170256
