20

C      4.064036    0.389853    0.051037
C      2.657326    0.378330    0.544446
O      2.377854    0.947618    1.634105
O      1.692840   -0.358667   -0.154869
C      0.305696   -0.266874    0.035024
C     -0.317969    0.915209    0.472630
C     -1.705714    0.962244    0.636403
C     -2.497153   -0.166538    0.356732
C     -1.870135   -1.338945   -0.098676
C     -0.482663   -1.383261   -0.262832
N     -3.926027   -0.122675    0.524740
O     -4.488426    0.916634    0.927999
O     -4.697193   -1.227821    0.245676
H      4.078926    0.256758   -1.050978
H      4.629466   -0.438460    0.526147
H      4.549288    1.356833    0.301505
H      0.257528    1.811219    0.659787
H     -2.160459    1.884830    0.973796
H     -2.451418   -2.222163   -0.329596
H     -0.015807   -2.294122   -0.615960
