29

C     -5.347981    0.044431    0.686531
N     -3.913542   -0.094108    0.908819
C     -2.982652    0.212459    0.051204
N     -3.312400    0.737637   -1.246482
N     -1.612009    0.013475    0.431931
C     -0.488090    0.323198   -0.452468
C      0.847437    0.004652    0.228665
C      2.030894    0.323963   -0.698215
C      3.390885    0.069634   -0.017962
C      3.580737   -1.394647    0.270556
O      3.744252   -2.213284   -0.674260
O      3.553843   -1.849609    1.585184
N      4.475551    0.543642   -0.879154
H     -5.664712   -0.585145   -0.171941
H     -5.604996    1.108451    0.498212
H     -5.889615   -0.295181    1.593050
H     -4.299403    0.891188   -1.547083
H     -2.571234    0.985042   -1.936899
H     -1.421466   -0.370511    1.386351
H     -0.516925    1.403291   -0.714651
H     -0.577255   -0.280760   -1.381724
H      0.933754    0.606514    1.159974
H      0.863655   -1.073189    0.500625
H      1.971111    1.395912   -0.989510
H      1.955767   -0.283762   -1.627337
H      3.424342    0.633350    0.942598
H      3.670265   -2.833354    1.796830
H      5.382310    0.397918   -0.377294
H      4.377476    1.578796   -0.995025
