20

C     -1.923600    1.489327    1.299335
C     -2.894332    0.770350    0.571108
C     -2.504730   -0.222881   -0.342894
C     -1.141174   -0.467500   -0.500603
C     -0.189798    0.228152    0.204637
C     -0.554174    1.222276    1.120819
C      1.050944   -0.263233   -0.191874
C      0.759533   -1.252234   -1.138103
N     -0.574288   -1.367400   -1.317380
C      2.389758    0.174070    0.290872
O      2.461034    1.087357    1.154268
C      3.661622   -0.402182   -0.183906
O      3.704550   -1.318446   -1.044075
H     -2.234929    2.252379    2.000874
H     -3.945017    0.984753    0.717058
H     -3.241977   -0.780044   -0.906433
H      0.177987    1.780525    1.685118
H      1.468304   -1.863203   -1.675334
H     -1.062075   -2.026799   -1.963841
H      4.592360   -0.025267    0.220354
