15

C     -1.178036   -0.654236    0.375172
C     -1.683049    0.613672   -0.296491
C     -0.720061    1.207706   -0.984918
N      0.441048    0.435530   -0.842549
C      0.261107   -0.818095   -0.178126
C      1.389308   -0.617818    0.697945
C      1.688111    0.630858   -0.071335
O      2.582286    1.515284   -0.028394
H     -1.810056   -1.518035    0.079377
H     -1.195509   -0.532764    1.479292
H     -2.679286    1.018924   -0.179672
H     -0.781386    2.165761   -1.483145
H      0.375103   -1.667009   -0.890304
H      1.125493   -0.397247    1.754596
H      2.184927   -1.382530    0.568551
