47

C      2.151219   -0.261700    2.075866
C      1.958421    0.852231    0.996024
C      0.807369    1.795806    1.403061
C     -0.556903    1.065102    1.366449
C     -0.838699    0.341544    0.007163
C      0.373849   -0.548917   -0.444972
C      1.650685    0.315903   -0.406952
C      2.968658   -0.277905   -0.887908
C      4.039600    0.630567   -0.257624
C      3.306112    1.557803    0.734314
O      4.065955    1.743026    1.901002
C      0.132303   -1.105817   -1.861142
C     -1.147103   -1.938304   -1.911681
C     -2.314468   -1.118544   -1.419787
C     -3.421095   -1.036363   -2.176456
C     -4.548764   -0.199873   -1.769570
O     -5.591815   -0.154871   -2.473347
C     -4.447052    0.602381   -0.554111
C     -3.363132    0.527205    0.218980
C     -2.206181   -0.441036   -0.041033
C     -2.296501   -1.539161    1.043748
H      2.374127    0.198553    3.061857
H      2.993897   -0.938151    1.824186
H      1.253570   -0.891376    2.218912
H      0.763374    2.667228    0.712548
H      0.985260    2.195511    2.425073
H     -1.331240    1.836322    1.551716
H     -0.609101    0.350528    2.210438
H     -0.929244    1.158419   -0.747156
H      0.500040   -1.416878    0.230836
H      1.458020    1.186662   -1.082698
H      3.035243   -0.261920   -1.997699
H      3.081207   -1.324700   -0.530319
H      4.799261    0.008061    0.264535
H      4.551004    1.233519   -1.039456
H      3.137767    2.542460    0.235521
H      3.628077    2.476197    2.406824
H      0.059915   -0.272387   -2.595141
H      0.982109   -1.755494   -2.162491
H     -1.034758   -2.843098   -1.277336
H     -1.298564   -2.286048   -2.957433
H     -3.483764   -1.560828   -3.122770
H     -5.260896    1.261248   -0.276886
H     -3.373294    1.104494    1.133461
H     -2.339477   -1.101799    2.063016
H     -1.440177   -2.240485    1.004336
H     -3.224813   -2.135116    0.904101
