46

C      4.938136    0.880576   -1.532298
C      4.553806   -0.219644   -0.534936
C      5.281591   -0.048570    0.804943
C      3.042753   -0.322117   -0.356506
C      2.272891    0.714681    0.219143
C      0.873931    0.544510    0.403222
C      0.222893   -0.590016   -0.153836
C      1.014313   -1.613217   -0.707840
C      2.395511   -1.482793   -0.798644
C     -1.303941   -0.739161   -0.026379
C     -1.928512   -1.538401   -1.220381
C     -3.470562   -1.617764   -1.167086
C     -4.089009   -0.331552   -0.707599
C     -3.434635    0.657415   -0.117708
C     -1.928774    0.697775   -0.052635
C     -1.421361    1.568408    1.104937
C      0.073002    1.496569    1.227045
O      0.624661    2.186948    2.125180
C     -4.379727    1.778871    0.237122
O     -5.655896    1.270725   -0.145850
C     -5.487467    0.018759   -0.706358
O     -6.428109   -0.694307   -1.143220
C     -1.598450   -1.482460    1.301310
O      2.909581    1.909488    0.565503
H      4.379122    0.745098   -2.482850
H      4.725124    1.892149   -1.131260
H      6.024214    0.821166   -1.758636
H      4.932813   -1.172998   -0.967451
H      4.957260   -0.836415    1.518034
H      6.377576   -0.149675    0.653441
H      5.088136    0.946028    1.255223
H      0.582724   -2.535804   -1.061855
H      2.961934   -2.296391   -1.235161
H     -1.561684   -2.584741   -1.242977
H     -1.628559   -1.057109   -2.177833
H     -3.861904   -1.876458   -2.174094
H     -3.776289   -2.423754   -0.466050
H     -1.600220    1.192780   -0.995947
H     -1.712175    2.626949    0.929554
H     -1.880514    1.241624    2.062932
H     -4.140876    2.691382   -0.348823
H     -4.359167    1.984692    1.327833
H     -1.058205   -1.018392    2.153303
H     -2.681733   -1.474772    1.541771
H     -1.263914   -2.539830    1.232326
H      2.419713    2.779748    0.721879
