36

C     -3.363829    3.236255    0.378344
O     -2.415743    2.177068    0.450715
C     -2.736701    0.820976    0.294772
C     -4.052642    0.362795    0.046914
C     -4.314941   -1.019791   -0.100154
C     -3.266771   -1.951604   -0.000501
C     -1.980937   -1.477015    0.243029
C     -1.728364   -0.140552    0.383031
C     -0.307135   -0.013864    0.630522
O      0.295952    1.063183    0.881781
C      0.311330   -1.389003    0.609138
O     -0.824804   -2.236321    0.375954
C      1.330935   -1.561243   -0.536261
C      2.562868   -0.707257   -0.359742
C      2.670842    0.529682   -1.017345
C      3.806011    1.326358   -0.840287
C      4.843973    0.897395   -0.007041
C      4.742727   -0.335795    0.650824
C      3.608332   -1.134089    0.475872
O      5.968893    1.701715    0.160436
O      0.878745   -1.676019    1.860586
O     -5.609741   -1.471710   -0.343930
H     -3.843604    3.251150   -0.623055
H     -2.841482    4.201836    0.536872
H     -4.133800    3.113869    1.169148
H     -4.873023    1.063031   -0.032453
H     -3.451713   -3.012380   -0.109522
H      1.634395   -2.629538   -0.592288
H      0.839211   -1.325535   -1.506171
H      1.874194    0.879183   -1.662452
H      3.878540    2.278688   -1.350011
H      5.541426   -0.675983    1.297574
H      3.545071   -2.084691    0.990657
H      6.737557    1.419204    0.757285
H      1.063219   -2.651335    1.874811
H     -6.388991   -0.828665   -0.421622
