18

C      0.460402    0.378753    0.056787
C      1.564511   -0.690919    0.120961
N      2.890459   -0.092807   -0.020579
C     -0.940189   -0.196961    0.346789
C     -1.920126    0.935074    0.518199
O     -2.379595    1.198499    1.660690
O     -2.309050    1.714453   -0.568662
N     -1.381099   -1.070936   -0.743571
H      0.469577    0.858028   -0.946983
H      0.689029    1.163411    0.812266
H      1.424660   -1.433529   -0.692660
H      1.514588   -1.228172    1.092983
H      2.928784    0.435103   -0.922915
H      3.037772    0.592274    0.756069
H     -0.905599   -0.782018    1.295073
H     -1.951083    1.536404   -1.499304
H     -2.368902   -1.362064   -0.556989
H     -0.824138   -1.954592   -0.708154
