24

C     -3.250950   -0.483924    0.003449
C     -1.951022    0.279940    0.059326
C     -0.690289   -0.369112   -0.039300
C     -0.599098   -1.770546   -0.160000
C      0.639894   -2.399246   -0.232390
C      1.811433   -1.650352   -0.213109
C      1.770117   -0.251245   -0.124100
C      0.510440    0.402816   -0.001372
C      0.413706    1.795823    0.199667
C     -0.827557    2.417532    0.304329
C     -1.998438    1.671575    0.225743
C      3.061472    0.471182   -0.195375
O      3.171792    1.527143   -0.874406
O      4.184830   -0.057303    0.434813
H     -3.307248   -1.193300    0.855712
H     -4.130809    0.191669    0.063293
H     -3.319140   -1.043033   -0.953401
H     -1.480446   -2.396701   -0.186603
H      0.692402   -3.477327   -0.316125
H      2.759233   -2.168480   -0.298619
H      1.288196    2.419590    0.307466
H     -0.882127    3.488216    0.455171
H     -2.948282    2.185393    0.309520
H      5.081893    0.409689    0.376312
