41

C     -3.136697    0.626730   -0.972615
C     -3.842410    0.480716    0.391816
C     -2.974248   -0.311306    1.402781
O     -1.678270    0.263180    1.521630
C     -0.963769    0.250304    0.292760
C     -1.686538    1.103497   -0.778418
O     -1.640831    2.476581   -0.468842
O      0.320339    0.800863    0.536821
C      1.327888    0.209564   -0.271476
C      1.937333   -1.024392    0.420830
C      3.132520   -1.549498   -0.390893
C      4.099623   -0.412705   -0.829720
O      3.446350    0.705091   -1.419565
C      2.413524    1.258086   -0.614836
C      2.968465    2.055514    0.546231
O      4.001292    2.756590    0.379142
O      2.313449    2.105463    1.770986
O      5.002095   -0.009487    0.173900
O      2.644142   -2.211968   -1.531046
O      2.333081   -0.728165    1.735783
C     -2.905736   -1.809866    1.182954
O     -2.000483   -2.479679    1.747153
O     -3.870911   -2.477016    0.438109
O     -5.109203   -0.109808    0.249075
O     -3.131075   -0.598844   -1.661191
H     -3.674828    1.391703   -1.581431
H     -3.982231    1.501543    0.818242
H     -3.466810   -0.185977    2.391074
H     -0.890404   -0.801345   -0.075139
H     -1.155407    0.972428   -1.746120
H     -1.968812    2.598492    0.459009
H      0.918456   -0.121760   -1.256957
H      1.172721   -1.836462    0.452323
H      3.691070   -2.279347    0.242326
H      4.735739   -0.847586   -1.629880
H      1.899960    2.012250   -1.249963
H      4.554506   -0.060683    1.053861
H      3.359581   -2.828539   -1.837825
H      1.514123   -0.744272    2.297041
H     -5.686382    0.555274   -0.209821
H     -4.021214   -0.695163   -2.090127
