38

C     -2.721004    1.291158   -1.360792
C     -2.434261   -0.227881   -1.408449
C     -3.138297   -0.964661   -0.246032
C     -2.617147   -0.518626    1.125832
C     -1.117692   -0.366741    1.174679
C     -0.338274   -0.268517    0.071806
C     -0.912269   -0.492359   -1.315706
C      1.162157   -0.040583    0.196939
C      1.477400    1.298231    0.877369
C      2.987304    1.560586    0.845712
C      3.814067    0.360314    1.268608
C      3.308735   -0.889342    1.229629
C      1.857728   -1.185872    0.952955
C      5.239855    0.568730    1.612301
O      5.743023    1.722298    1.559530
O      6.043770   -0.498768    1.997530
C     -2.964247   -0.781830   -2.746780
H     -3.815894    1.481072   -1.355430
H     -2.279687    1.761777   -0.457587
H     -2.284015    1.798162   -2.248039
H     -4.236918   -0.795425   -0.288968
H     -2.968304   -2.060432   -0.345150
H     -3.079263    0.452953    1.401882
H     -2.928333   -1.262037    1.890420
H     -0.679864   -0.226367    2.157668
H     -0.696644   -1.548029   -1.591850
H     -0.382105    0.152214   -2.051165
H      1.601265   -0.008549   -0.826443
H      1.133582    1.288562    1.934852
H      0.952910    2.124942    0.349781
H      3.284658    1.843933   -0.187313
H      3.206945    2.423212    1.511329
H      3.928900   -1.732984    1.506863
H      1.361942   -1.373487    1.928568
H      1.788395   -2.117319    0.350672
H     -2.449582   -0.295261   -3.603505
H     -2.792973   -1.877830   -2.817577
H     -4.055864   -0.595244   -2.842480
