41

C      2.610105    0.492712   -0.399395
C      1.297751    0.021360   -0.301771
C      0.959838   -0.954285    0.654729
C      1.955760   -1.443846    1.508953
C      3.268534   -0.971864    1.411458
C      3.614754   -0.009368    0.450096
C      5.019352    0.466418    0.394521
C      5.565706    1.051963   -0.680911
C      6.970843    1.502131   -0.702773
O      7.707452    1.370190    0.311075
O      7.499064    2.082994   -1.851974
O      1.641809   -2.404778    2.463288
O     -0.343975   -1.459290    0.789388
C     -1.474022   -1.030607    0.028932
C     -2.679843   -1.958521    0.361873
C     -3.702426   -1.239002    1.271574
C     -4.111710    0.136789    0.681885
C     -2.978374    0.740449   -0.191879
O     -1.725636    0.337513    0.324853
C     -3.032408    2.274920   -0.206014
O     -4.249159    2.729777   -0.734762
O     -5.310025    0.040360   -0.049182
O     -3.137060   -1.044014    2.544279
O     -3.299099   -2.363643   -0.833089
H      2.821517    1.265168   -1.125407
H      0.554399    0.428682   -0.972718
H      4.021033   -1.366032    2.084283
H      5.639652    0.286873    1.265320
H      4.989234    1.188248   -1.584924
H      6.937304    2.206418   -2.685986
H     -1.220584   -1.136276   -1.051105
H     -2.305203   -2.867345    0.890574
H     -4.615089   -1.872320    1.377267
H     -4.312657    0.818714    1.538306
H     -3.083648    0.402708   -1.251107
H     -2.182583    2.674618   -0.805285
H     -2.921565    2.666295    0.827955
H     -4.201540    2.591678   -1.716773
H     -5.160022   -0.591666   -0.798788
H     -3.151196   -1.923516    3.005129
H     -3.876281   -3.140606   -0.611103
