29

C      3.447803    0.359203   -0.871599
C      2.126262    0.540260   -0.530429
N      1.473779   -0.639812   -0.624623
C      2.417555   -1.524313   -1.011907
N      3.622435   -0.940571   -1.173212
C      0.072589   -0.955826   -0.326545
C     -0.198586   -0.923323    1.186034
C     -1.445897   -0.058490    1.313273
C     -1.914992    0.079582   -0.131659
O     -0.781944   -0.031798   -0.960045
C     -2.620968    1.414691   -0.381878
O     -3.074158    1.466075   -1.706048
O     -2.443462   -0.651228    2.104996
O     -0.371704   -2.220063    1.709493
N      1.547794    1.777124   -0.110476
H      4.227121    1.109815   -0.888032
H      2.235079   -2.579992   -1.169071
H      4.511599   -1.404337   -1.462861
H     -0.162479   -1.964303   -0.738492
H      0.639253   -0.436654    1.732749
H     -1.166424    0.939085    1.728766
H     -2.620932   -0.747447   -0.380096
H     -1.917069    2.256687   -0.195375
H     -3.487183    1.508634    0.311103
H     -3.520771    2.346240   -1.810047
H     -2.148344   -0.552789    3.047704
H     -1.129026   -2.648517    1.230074
H      0.548884    1.841953    0.176413
H      2.133787    2.640116   -0.068211
