26

C     -2.546917    1.582750    2.100643
C     -1.695142    0.839228    1.114363
C     -2.064691    0.785969   -0.236450
C     -1.258712    0.114832   -1.166400
C     -0.052591   -0.466199   -0.746984
C      0.343142   -0.400728    0.602918
C     -0.487511    0.256028    1.524405
N      1.577091   -0.986064    1.065269
C      2.573347   -1.616249    0.198721
C      3.279814   -0.585892   -0.624302
O      3.901986    0.353592   -0.060251
O      3.260683   -0.672250   -2.012730
C     -1.645579    0.084505   -2.615939
H     -3.617425    1.537130    1.807338
H     -2.450660    1.139219    3.114587
H     -2.226573    2.644840    2.137968
H     -2.980559    1.264492   -0.563401
H      0.567388   -0.963086   -1.479640
H     -0.188505    0.319014    2.563966
H      1.788425   -0.958847    2.088955
H      2.092556   -2.381536   -0.446771
H      3.327315   -2.139425    0.825347
H      3.735491    0.017558   -2.582659
H     -1.203423    0.960875   -3.134129
H     -2.750260    0.116021   -2.728993
H     -1.278687   -0.845776   -3.099708
