34

C      4.612693   -1.398162   -1.451040
C      3.431415   -0.688133   -0.856513
C      2.138374   -1.173477   -1.070260
C      1.016583   -0.501355   -0.546114
C      1.197590    0.699207    0.189458
C      2.515227    1.192558    0.383197
C      3.611266    0.498483   -0.143503
O      2.749276    2.375425    1.086307
C      0.064973    1.373075    0.706920
C     -1.238580    0.891483    0.426550
C     -1.398935   -0.365176   -0.202679
C     -0.274734   -1.025757   -0.745090
O     -0.416494   -2.195159   -1.503551
C     -2.785370   -0.969839   -0.339864
C     -3.753527   -0.454519    0.737030
C     -3.826100    1.071653    0.693260
C     -2.460455    1.696033    0.726515
O     -2.388744    2.944720    0.878050
O     -3.334072   -0.868684    2.012946
O      0.255265    2.488686    1.529280
H      5.524329   -1.225917   -0.839957
H      4.431439   -2.493393   -1.492441
H      4.790251   -1.021259   -2.479868
H      2.016929   -2.084974   -1.643458
H      4.610740    0.890447    0.002594
H      3.684805    2.738602    1.227869
H     -1.305477   -2.564676   -1.812528
H     -2.740505   -2.074012   -0.230805
H     -3.186144   -0.732871   -1.349273
H     -4.773419   -0.855484    0.530986
H     -4.426040    1.440169    1.553586
H     -4.337348    1.387900   -0.241926
H     -3.562683   -1.831674    2.091403
H     -0.442529    2.836083    2.172917
