30

C      4.986276   -0.537025    0.150476
C      3.839687   -1.156775   -0.647852
C      2.476010   -0.981581    0.037561
C      1.982767    0.470321    0.004530
C      0.601018    0.560288    0.569305
O      0.442157    0.833841    1.790156
O     -0.497402    0.351488   -0.274724
C     -1.812704    0.101688    0.149831
C     -2.071080   -0.600097    1.343381
C     -3.382773   -0.837686    1.755924
C     -4.450847   -0.393268    0.978748
C     -4.212179    0.283508   -0.218720
C     -2.896377    0.535744   -0.649539
C     -2.665394    1.243326   -1.933835
O     -1.634489    0.997425   -2.614498
O     -3.572763    2.185748   -2.415603
H      4.994473   -0.930666    1.189102
H      4.896747    0.568652    0.174069
H      5.952622   -0.794622   -0.331994
H      3.814926   -0.716264   -1.668281
H      4.040254   -2.244709   -0.756808
H      2.534174   -1.338225    1.089730
H      1.739522   -1.623199   -0.495239
H      1.968231    0.841806   -1.042930
H      2.660648    1.121662    0.596120
H     -1.260658   -0.988894    1.944691
H     -3.571317   -1.378126    2.674635
H     -5.467170   -0.587426    1.296660
H     -5.061079    0.583542   -0.818940
H     -4.373283    2.489905   -1.875956
