37

C      1.732125   -0.962983   -2.090527
C      1.058165   -0.104582   -1.035446
N      1.729812    0.458287   -0.071877
C      3.140313    0.292760    0.098107
C      3.850166   -0.529420   -0.769977
N      3.155178   -1.193569   -1.825988
N      5.187326   -0.700424   -0.604615
C      5.851929   -0.073533    0.403130
N      5.173857    0.737601    1.264734
C      3.832207    0.930466    1.131413
O      3.219930    1.680897    1.938168
N      7.257889   -0.270077    0.553229
C     -0.421084    0.139143   -1.123485
N     -1.120519   -0.496494   -0.004638
C     -2.544604   -0.404995    0.190183
C     -3.371234    0.306156   -0.699710
C     -4.750645    0.376352   -0.483099
C     -5.333168   -0.261650    0.625508
C     -4.507574   -0.971587    1.512470
C     -3.128575   -1.041636    1.295639
C     -6.792550   -0.189061    0.858435
O     -7.535607    0.446466    0.062310
O     -7.359862   -0.822746    1.961147
H      1.214660   -1.944546   -2.138579
H      1.627373   -0.465245   -3.077673
H      3.688470   -1.817655   -2.472198
H      5.688311    1.216931    2.038332
H      7.784175    0.203345    1.320695
H      7.776485   -0.891122   -0.106772
H     -0.815875   -0.269092   -2.079096
H     -0.604376    1.235082   -1.105806
H     -0.565265   -1.053089    0.686098
H     -2.960377    0.809273   -1.564134
H     -5.360909    0.930842   -1.185212
H     -4.925565   -1.474174    2.375641
H     -2.512744   -1.594870    1.993708
H     -8.357836   -0.779233    2.129888
