27

C     -3.318393    1.137592    1.828534
C     -3.215248    0.312808    0.581376
O     -4.275443   -0.057607    0.008471
C     -1.891738   -0.066892    0.029952
N     -0.827194    0.311324    0.676449
C      0.580988    0.106643    0.432431
C      1.173757   -0.262749   -0.809316
N      0.447209   -0.463829   -2.031501
C     -0.953795   -0.148323   -2.246354
C     -1.806275   -0.880683   -1.227259
N      2.521943   -0.433454   -0.864033
C      3.323355   -0.244560    0.211775
N      2.783048    0.136918    1.396013
C      1.442420    0.317000    1.523738
O      0.970103    0.669422    2.639059
N      4.732370   -0.439113    0.089137
H     -2.801629    2.108872    1.679674
H     -2.847148    0.596441    2.675682
H     -4.382186    1.335628    2.079921
H      0.975508   -0.848597   -2.847707
H     -1.106752    0.952813   -2.197319
H     -1.245235   -0.479364   -3.267461
H     -1.382849   -1.883408   -0.999314
H     -2.812654   -1.043735   -1.667584
H      3.404553    0.291181    2.222514
H      5.364670   -0.294881    0.907419
H      5.146613   -0.729447   -0.824295
