35

C     -4.389301   -0.075479    1.818134
C     -3.003572    0.032824    1.673977
C     -2.429178    0.225016    0.409023
C     -3.272657    0.311710   -0.713945
C     -4.659254    0.202160   -0.570437
C     -5.233136   -0.001623    0.696610
C     -6.702539   -0.115102    0.865837
O     -7.221969    0.118949    1.989550
O     -7.536783   -0.491597   -0.186284
N     -0.997610    0.333011    0.293956
C     -0.308007    0.537236   -0.981526
C      1.176930    0.605066   -0.776184
C      1.797042    1.805019   -0.393564
N      3.139504    1.829923   -0.178315
C      3.891498    0.708033   -0.320180
C      3.272928   -0.495812   -0.689949
N      1.930382   -0.521471   -0.904633
C      4.064783   -1.639168   -0.823978
O      3.545748   -2.739999   -1.153309
N      5.405605   -1.559256   -0.596760
C      5.988824   -0.378436   -0.238880
N      5.230210    0.742999   -0.102958
N      7.395474   -0.312240   -0.004391
H     -4.800209   -0.227999    2.808548
H     -2.375227   -0.033859    2.553374
H     -2.869561    0.470078   -1.704755
H     -5.275219    0.303437   -1.453277
H     -7.180960   -0.793377   -1.083846
H     -0.427332    0.260109    1.168439
H     -0.543755   -0.304248   -1.668393
H     -0.661463    1.481477   -1.449859
H      1.217783    2.710417   -0.265953
H      5.995136   -2.416592   -0.698470
H      7.993856   -1.162112   -0.103445
H      7.842030    0.590907    0.269727
