35

C     -2.908310   -1.028762   -1.381330
C     -3.916422   -1.512846   -0.675231
C     -4.188081   -0.712483    0.545606
C     -3.304261    0.543019    0.368511
C     -2.312790    0.201343   -0.773836
N     -0.969801   -0.085712   -0.238267
C      0.028393   -0.171733   -1.313165
C      1.364657   -0.530320   -0.736282
C      1.877109   -1.817712   -0.583626
N      3.073835   -1.780180    0.047027
C      3.306368   -0.482960    0.301783
C      2.294013    0.310077   -0.148555
C      2.354106    1.685786    0.056243
O      1.432919    2.448891   -0.339114
N      3.446564    2.193243    0.703042
C      4.456596    1.372809    1.145343
N      4.385009    0.022077    0.946177
N      5.586384    1.926001    1.820040
O     -4.066829    1.682767    0.046057
O     -5.554000   -0.403027    0.624804
H     -2.549452   -1.497489   -2.291610
H     -4.446907   -2.422221   -0.938816
H     -3.866264   -1.300895    1.435590
H     -2.772995    0.749554    1.323257
H     -2.274690    1.023688   -1.525067
H     -0.688549    0.720319    0.369138
H      0.104241    0.794316   -1.859179
H     -0.255018   -0.956967   -2.045799
H      1.393448   -2.730880   -0.905478
H      3.679366   -2.592940    0.297668
H      3.511690    3.223926    0.864598
H      5.659488    2.954647    1.983285
H      6.354313    1.304681    2.158328
H     -4.531989    1.504705   -0.813667
H     -5.702141   -0.029597    1.532524
