31

C      0.042456   -1.883852    0.349753
C     -0.650367   -0.637206   -0.170932
N      0.020416    0.400861   -0.584290
C      1.448176    0.475058   -0.547957
C      2.182554   -0.580024   -0.018319
N      1.494189   -1.728672    0.477343
N      3.537893   -0.508375    0.031626
C      4.196682    0.586480   -0.434776
N      3.494463    1.631617   -0.958919
C      2.134406    1.596240   -1.022271
O      1.500181    2.572052   -1.506485
N      5.622001    0.634921   -0.371404
C     -2.156765   -0.619537   -0.259779
C     -2.746583    0.466723    0.668842
C     -4.286347    0.458634    0.642951
O     -4.794209    1.491699    1.443871
O     -2.279438    0.304300    1.986386
O     -2.542947   -0.369433   -1.586862
H     -0.168450   -2.725676   -0.342983
H     -0.377464   -2.138885    1.345803
H      2.046774   -2.516641    0.883761
H      4.004577    2.471611   -1.315412
H      6.159037   -0.165339    0.030338
H      6.144055    1.467407   -0.724363
H     -2.560740   -1.608926    0.061492
H     -2.406842    1.462478    0.306932
H     -4.679246   -0.527996    0.981405
H     -4.642129    0.622286   -0.396278
H     -4.783135    1.160396    2.379626
H     -2.580427   -0.587751    2.302974
H     -2.372772   -1.204450   -2.096990
