32

C      2.479296   -1.088246    0.764947
C      3.116337   -0.050249    0.077725
N      2.369133    0.932331   -0.505012
C      0.999335    0.927862   -0.479312
C      0.239637    1.968710   -1.112786
C     -1.166545    1.877665   -1.175120
C     -1.784455    0.780904   -0.591956
C     -3.116414    0.441782   -0.552555
C     -3.152930   -0.771229    0.124207
N     -1.911763   -1.169231    0.489951
C     -1.083196   -0.199345    0.054789
C      0.321130   -0.156172    0.162449
C      1.084895   -1.144124    0.830973
C      0.483656   -2.213853    1.654697
O      0.800036   -3.415271    1.449115
O     -0.380269   -1.906682    2.702934
C     -4.360371   -1.562332    0.420580
O     -4.246866   -2.653092    1.039102
O     -5.629697   -1.135578    0.034904
O     -1.938377    2.855077   -1.804934
O      0.835316    3.101939   -1.677213
C      4.597641    0.008797    0.009900
O      5.169384    1.115873   -0.173650
O      5.384782   -1.136279    0.127665
H      3.062672   -1.832198    1.292975
H      2.884444    1.674101   -1.021564
H     -3.941224    0.999819   -0.974431
H     -0.601636   -0.946037    2.936915
H     -5.781734   -0.267923   -0.462381
H     -1.525962    3.668766   -2.244736
H      1.804708    3.360778   -1.568423
H      4.989038   -2.066563    0.170246
