49

C     -1.849175   -0.971995    3.209711
C     -1.509192   -1.684818    1.934204
C     -1.517863   -1.108392    0.712228
C     -1.199247   -1.967341   -0.502442
N     -1.090149   -1.155873   -1.719681
C     -1.931093   -0.194412   -1.950329
C     -2.740823    0.357029   -0.824995
C     -1.873507    0.360401    0.461516
C     -0.578642    1.321227    0.480488
C      0.750000    0.513921    0.387751
C      1.414558   -0.017225   -0.755708
C      1.010801   -0.028124   -2.214799
C      0.110001   -1.231073   -2.533033
C      2.470802   -0.761998   -0.254691
C      3.423960   -1.554774   -0.901847
C      4.359561   -2.243256   -0.109155
C      4.316791   -2.139502    1.297330
C      3.336019   -1.348906    1.920731
C      2.428809   -0.670812    1.106962
N      1.397726    0.084093    1.506402
C     -0.570356    2.084981    1.801909
O      0.366193    2.815046    2.095258
C     -0.615548    2.445861   -0.547217
O      0.451841    2.840420   -1.095275
O     -1.783036    3.198919   -0.709964
C     -1.870297    4.297562   -1.608829
H     -2.882069   -0.568643    3.166612
H     -1.125157   -0.156880    3.400483
H     -1.792497   -1.686287    4.057466
H     -1.255802   -2.738964    2.013506
H     -2.010734   -2.714491   -0.637517
H     -0.254382   -2.522830   -0.312034
H     -1.846288    0.413285   -2.849069
H     -3.155547    1.348779   -1.079359
H     -3.622110   -0.305919   -0.674969
H     -2.595857    0.687281    1.238154
H      0.498816    0.905889   -2.503871
H      1.918288   -0.080660   -2.852004
H     -0.158399   -1.225903   -3.612953
H      0.665081   -2.176337   -2.345103
H      3.447418   -1.647965   -1.979162
H      5.112076   -2.861902   -0.580496
H      5.036756   -2.678178    1.899505
H      3.283260   -1.275884    2.999329
H      1.131660    0.254195    2.501449
H     -1.402237    2.027728    2.495435
H     -2.895950    4.718172   -1.571120
H     -1.658238    3.957447   -2.644646
H     -1.146223    5.087108   -1.316160
