31

C      2.136369    2.020889    0.167035
N      0.942118    1.629819   -0.348017
N      0.877993    0.301509   -0.294329
C      2.009248   -0.149693    0.269856
C      2.822158    0.892037    0.566418
C      4.048539    0.665078    1.172948
O      4.821055    1.617333    1.462407
N      4.393277   -0.629488    1.451073
C      3.549168   -1.669609    1.144770
N      2.340491   -1.433480    0.549390
C     -0.289685   -0.489217   -0.680415
C     -1.251394   -0.631539    0.495116
C     -2.600749   -0.681862   -0.179317
C     -2.353688    0.137224   -1.451649
O     -0.969315    0.142555   -1.743738
C     -2.835618    1.589222   -1.313426
O     -4.237574    1.638998   -1.262920
O     -2.948918   -1.997343   -0.534132
O     -0.984007   -1.751120    1.307696
H      2.464578    3.047924    0.254574
H      5.310469   -0.835911    1.907164
H      3.839279   -2.685896    1.376818
H      0.044279   -1.487405   -1.041885
H     -1.208508    0.282913    1.129048
H     -3.388763   -0.234227    0.470931
H     -2.891818   -0.321616   -2.311053
H     -2.374589    2.070895   -0.418892
H     -2.502869    2.163305   -2.204337
H     -4.492877    1.745310   -0.309794
H     -3.395504   -2.399058    0.256447
H     -0.873145   -2.547546    0.726188
