44

C      2.800370    0.757796   -2.342079
C      3.389739    0.003628   -1.179184
C      4.670189   -0.561577   -1.297253
C      5.237457   -1.268155   -0.230196
C      4.529355   -1.410797    0.964341
C      3.254743   -0.848079    1.104374
C      2.678778   -0.136638    0.035730
C      1.330043    0.456047    0.201681
C      0.162020   -0.321530    0.002912
C     -1.101936    0.269781    0.219085
C     -1.194134    1.634756    0.592673
C     -0.034562    2.390348    0.758728
C      1.223445    1.808846    0.573256
O      2.376081    2.572357    0.762125
O     -2.380079    2.205379    0.791984
C     -3.512797    1.531155    0.656245
C     -4.748480    2.138084    0.866829
C     -5.925357    1.394026    0.715648
O     -7.040044    1.948466    0.907229
C     -5.878091    0.037525    0.353138
C     -4.652965   -0.617401    0.130705
C     -3.460517    0.106194    0.274886
N     -2.244204   -0.457169    0.073684
C     -4.625270   -2.069247   -0.258643
C      0.269544   -1.782326   -0.374254
O      2.557036   -0.991376    2.304015
O      6.505748   -1.832666   -0.347402
H      2.704189    1.832153   -2.080347
H      3.435606    0.674023   -3.249376
H      1.797265    0.350385   -2.588535
H      5.229236   -0.456518   -2.219057
H      4.972751   -1.958415    1.786561
H     -0.111201    3.432218    1.044555
H      2.329482    3.548539    1.029787
H     -4.795913    3.183596    1.147063
H     -6.807798   -0.508775    0.244375
H     -4.140299   -2.180393   -1.251333
H     -5.648857   -2.496362   -0.318780
H     -4.048941   -2.647336    0.494147
H      1.080630   -1.938849   -1.115654
H      0.486001   -2.382747    0.533751
H     -0.663293   -2.161456   -0.840533
H      2.948137   -1.499378    3.088660
H      7.046895   -1.748111   -1.199991
