31

C     -2.957220   -1.684592   -0.734623
C     -2.672339   -0.739403    0.441578
C     -2.774704    0.740936    0.036419
C     -1.326804    1.125928   -0.156431
C     -0.596134    0.172698    0.787364
O     -1.369100   -1.000292    0.929172
C      0.766503   -0.171344    0.261240
N      1.016695   -1.180704   -0.596298
N      2.306240   -1.146352   -0.899492
C      2.900914   -0.114523   -0.263295
C      1.930224    0.533627    0.483375
O      2.060706    1.655458    1.300060
C      4.328501    0.246205   -0.404253
O      4.735644    1.374196   -0.020910
N      5.264153   -0.667351   -0.980564
O     -1.067730    2.487374    0.098873
O     -3.404723    1.505077    1.039799
O     -4.312705   -1.626158   -1.094708
H     -2.728911   -2.725579   -0.421189
H     -2.291896   -1.445439   -1.597734
H     -3.403216   -0.967963    1.248987
H     -3.336816    0.886896   -0.911406
H     -1.047001    0.906454   -1.212402
H     -0.485253    0.626044    1.797292
H      2.755626   -1.814583   -1.562696
H      2.948448    2.113378    1.453138
H      6.260786   -0.382341   -1.106591
H      4.993135   -1.640712   -1.239051
H     -1.156728    2.653430    1.072747
H     -2.956797    1.315428    1.906008
H     -4.379497   -1.035795   -1.889631
