29

C      4.702051    0.586854   -0.101201
C      3.283227    0.117430   -0.125162
C      2.992371   -1.237542   -0.296752
C      1.658278   -1.654713   -0.315682
C      0.629059   -0.697751   -0.159541
C      1.014047    0.652252    0.006768
C      0.050737    1.644989    0.151492
C     -1.308818    1.320890    0.188317
C     -2.251499    2.344648    0.368104
C     -3.608396    2.044780    0.462485
O     -4.449314    2.970302    0.614422
C     -4.033357    0.719133    0.408008
C     -3.110463   -0.323840    0.241007
C     -1.729564   -0.032500    0.062570
C     -0.747384   -1.034610   -0.194428
O     -1.102775   -2.343647   -0.533790
O     -3.577163   -1.635773    0.308037
O      2.298456    0.996998    0.016835
O      1.371865   -3.010478   -0.479059
H      4.741515    1.686761    0.046518
H      5.196874    0.337133   -1.063277
H      5.247029    0.094403    0.731452
H      3.792858   -1.958341   -0.412610
H      0.371244    2.675355    0.259956
H     -1.931928    3.378533    0.442919
H     -5.086960    0.492970    0.521842
H     -1.959827   -2.582724   -1.012314
H     -4.557292   -1.850090    0.451595
H      2.105128   -3.701422   -0.588511
