17

C      0.833749   -0.566281    0.259830
C      0.600804    0.621833   -0.348194
N      1.758876    1.201351   -0.697556
C      2.686699    0.307690   -0.271463
O      3.925645    0.482309   -0.413690
N      2.156579   -0.791794    0.322160
N     -0.648793    1.103026   -0.546522
C     -1.707909    0.351630   -0.111931
N     -1.494056   -0.858924    0.508557
C     -0.228018   -1.339046    0.705635
O     -0.036970   -2.447207    1.273824
N     -3.037964    0.831929   -0.306458
H      1.908290    2.115809   -1.179191
H      2.656903   -1.613563    0.728612
H     -2.311224   -1.422708    0.835567
H     -3.859241    0.274524    0.017422
H     -3.203370    1.749422   -0.776602
