19

C     -2.204933   -1.130197    0.634185
C     -2.478014    0.178490    0.198974
N     -1.446087    0.974972   -0.192342
C     -0.162483    0.526587   -0.168818
C      0.908807    1.330530   -0.566934
O      0.708405    2.510270   -0.964094
N      2.176020    0.832357   -0.524027
C      2.416388   -0.441605   -0.097677
N      1.383072   -1.236060    0.293067
C      0.105726   -0.779680    0.266049
N     -0.920881   -1.577538    0.657291
N      3.750546   -0.948115   -0.058879
C     -3.848889    0.707449    0.156090
O     -4.830984    0.002273    0.509768
H     -3.001697   -1.789975    0.952211
H      2.975190    1.436586   -0.822612
H      4.556203   -0.353518   -0.354730
H      3.934858   -1.922743    0.267244
H     -4.021247    1.720060   -0.184767
