30

C     -2.541858   -1.230507   -2.015710
C     -3.912092   -1.042023   -2.199572
C     -4.611549   -0.123188   -1.411479
C     -3.935263    0.622696   -0.422310
C     -2.551511    0.428908   -0.250903
C     -1.852457   -0.499029   -1.044704
N     -0.443977   -0.711858   -0.889983
N      0.246423   -0.082823   -0.025350
C      1.654666   -0.296088    0.128907
C      2.347293    0.434161    1.101927
C      3.732147    0.265620    1.280417
C      4.415120   -0.678546    0.486220
C      3.724097   -1.403742   -0.489571
C      2.352949   -1.214915   -0.671916
O      5.769842   -0.929425    0.675605
C      4.432580    1.063242    2.312826
O      3.841338    1.349801    3.387594
O      5.726999    1.538748    2.112089
C     -4.656433    1.612240    0.416404
O     -5.671836    2.203437   -0.037358
O     -4.236064    1.909209    1.712123
O     -5.980038    0.027781   -1.610928
H     -2.013692   -1.946570   -2.633006
H     -4.434474   -1.615094   -2.955191
H     -2.010244    1.015834    0.479117
H      1.803921    1.147927    1.710172
H      4.250658   -2.125826   -1.100823
H      1.839689   -1.790869   -1.431240
H      6.198728    1.451978    1.220731
H     -3.484963    1.404804    2.165911
