36

C      2.034058    0.822941    0.333915
C      1.365985   -0.521762    0.063850
N      0.012543   -0.327341   -0.476129
C     -0.983735   -0.226242    0.598510
C     -2.345945    0.128760    0.014855
C      0.905037   -1.759694    1.022843
C      1.136652   -1.008659   -0.284248
N      0.222154    0.140213   -0.390853
C     -0.936739    0.066743   -1.292169
C     -2.225166   -0.107700   -0.495054
N      0.483868    1.337568    0.316021
N      1.499927    1.424520    1.083504
O      1.800789    2.573597    1.786017
O     -0.350767    2.423143    0.157386
H      1.501327    1.372583    1.137113
H      2.037791    1.439225   -0.590165
H      3.083468    0.658395    0.657515
H      1.357389   -1.138124    0.991475
H      1.984903   -1.063558   -0.685666
H     -0.224906   -1.173537   -1.046302
H     -0.698815    0.568994    1.320729
H     -1.063936   -1.192893    1.145225
H     -3.090479    0.223218    0.833300
H     -2.286796    1.094916   -0.530003
H     -2.682854   -0.665575   -0.684620
H      1.081489   -1.096037    1.894430
H     -0.136023   -2.142980    1.062856
H      1.603493   -2.620521    1.085854
H      0.988261   -1.717413   -1.127100
H      2.190381   -0.660620   -0.339790
H     -0.994742    0.990248   -1.907175
H     -0.842496   -0.786265   -1.998043
H     -3.089273   -0.155849   -1.190646
H     -2.186743   -1.050319    0.090042
H     -2.376171    0.744562    0.199295
H      1.226069    3.405462    1.726985
