38

C      4.493422   -2.503179    0.197987
C      5.801017   -1.974840    0.143233
C      6.005292   -0.605653   -0.100795
C      4.881677    0.201794   -0.272319
C      3.606770   -0.304571   -0.198895
C      3.377184   -1.666250    0.018658
C      2.744281    0.755967   -0.433071
C      3.562842    1.861484   -0.651403
N      4.865245    1.516924   -0.545678
C      1.268576    0.759104   -0.447914
C      0.458629   -0.018027    0.258208
C     -0.921142    0.408456   -0.026236
N     -0.960565    1.403484   -0.854964
C      0.397456    1.679127   -1.157840
O      0.766563    2.588074   -1.946677
C     -2.128028   -0.205651    0.560093
C     -2.151555   -1.279570    1.447760
N     -3.422780   -1.589670    1.785102
C     -4.206397   -0.724186    1.120854
C     -3.456921    0.139079    0.360266
C     -4.058439    1.130951   -0.419989
C     -5.465941    1.223404   -0.406447
C     -6.228828    0.331010    0.378845
C     -5.597944   -0.657002    1.154167
O     -6.116551    2.193309   -1.165441
H      4.348655   -3.561828    0.369921
H      6.652009   -2.629506    0.278922
H      7.004572   -0.194081   -0.160300
H      2.381019   -2.083426    0.027606
H      3.225109    2.868129   -0.859614
H      5.689439    2.147869   -0.660307
H      0.760510   -0.777056    0.965485
H     -1.287076   -1.808148    1.827081
H     -3.729414   -2.350096    2.431840
H     -3.472550    1.812613   -1.019763
H     -7.308654    0.406296    0.385615
H     -6.176774   -1.343857    1.758068
H     -5.600708    2.849523   -1.740016
