31

C      4.801151    0.118663   -0.336442
C      4.426123   -1.226308   -0.327721
C      3.075402   -1.577820   -0.255704
C      2.085002   -0.580681   -0.191548
C      0.726294   -0.927097   -0.119058
C     -0.295329    0.059879   -0.053198
C      0.127297    1.425204   -0.064405
C      1.487769    1.764011   -0.137088
C      2.467039    0.774565   -0.200549
C      3.827137    1.118233   -0.273169
C     -0.805333    2.461204   -0.003151
C     -2.157847    2.189327    0.069666
C     -2.622075    0.872737    0.083657
C     -1.711463   -0.231627    0.023060
C     -2.289414   -1.546330    0.043504
C     -3.681185   -1.709967    0.119467
C     -4.530672   -0.616247    0.176502
C     -4.007729    0.666409    0.158909
O     -1.526154   -2.708005   -0.009263
H      5.848225    0.387071   -0.392305
H      5.183356   -1.998145   -0.376849
H      2.806224   -2.627395   -0.250208
H      0.527720   -1.976464   -0.117597
H      1.786443    2.807564   -0.144294
H      4.135923    2.156872   -0.280965
H     -0.485163    3.497077   -0.011650
H     -2.850923    3.021943    0.115719
H     -4.111460   -2.703673    0.134532
H     -5.601489   -0.764230    0.234766
H     -4.692706    1.505555    0.204579
H     -1.942165   -3.632323    0.005655
