24

C      0.362859   -1.823453    0.068746
C      0.717125   -1.541453   -1.395407
N      1.609946   -0.394274   -1.509006
C      1.606848    0.665660   -0.545369
N      0.897186    0.574211    0.538836
C      0.008156   -0.546128    0.867308
C     -1.479028   -0.121689    0.755510
C     -1.786937    0.917556    1.804463
O     -2.353157    0.580075    2.878632
O     -1.411253    2.243631    1.607050
N     -1.790253    0.399389   -0.580003
N      2.423527    1.817054   -0.754485
H      1.249868   -2.295688    0.546352
H     -0.466087   -2.562016    0.119060
H      1.218375   -2.436423   -1.822845
H     -0.191515   -1.359175   -1.999874
H      2.168270   -0.283547   -2.384913
H      0.183355   -0.800189    1.937050
H     -2.122349   -1.009263    0.959407
H     -1.599293    2.947274    2.311006
H     -2.680324    0.948511   -0.538358
H     -2.017316   -0.411245   -1.198001
H      3.012616    1.900668   -1.612264
H      2.439379    2.590516   -0.052898
