44

H      0.000000    0.000000    0.000000
C     -1.049445    1.557879    1.455751
C      0.051172    0.489158    1.664499
N      0.067388   -0.562603    0.608981
C     -1.208261   -1.321210    0.580644
C     -2.381329   -0.390212    0.562092
C     -2.324215    0.908295    1.022460
N     -3.537550    1.502309    0.965289
C     -4.371659    0.554350    0.493144
C     -3.700624   -0.620683    0.243846
C     -4.352187   -1.757052   -0.230927
C     -5.737794   -1.668039   -0.460827
C     -6.429202   -0.460539   -0.210371
C     -5.743478    0.669047    0.274279
F     -6.413714   -2.747612   -0.924932
C      0.428161   -0.052538   -0.736311
C      1.901123    0.376885   -0.828489
C      2.858829   -0.744809   -0.406401
C      4.288852   -0.303908   -0.562825
C      4.975605   -0.515687   -1.768192
N      6.257312   -0.083361   -1.910168
C      6.907485    0.566448   -0.908455
C      6.258421    0.811571    0.303133
C      4.942165    0.378790    0.473612
H     -0.730424    2.289746    0.684392
H     -1.217416    2.108567    2.405659
H      1.040863    0.982159    1.747044
H     -0.117539   -0.000294    2.649277
H     -1.274362   -1.952275    1.492450
H     -1.250661   -2.008477   -0.292053
H     -3.776641    2.482171    1.236361
H     -3.812834   -2.676523   -0.418501
H     -7.494954   -0.403478   -0.389907
H     -6.266560    1.595384    0.473468
H     -0.224032    0.795146   -1.035589
H      0.277886   -0.850522   -1.497316
H      2.113604    0.655615   -1.884207
H      2.078556    1.284807   -0.214786
H      2.672718   -1.649562   -1.026004
H      2.673515   -1.024831    0.653450
H      4.492143   -1.021962   -2.593784
H      7.927102    0.897082   -1.054476
H      6.769472    1.334912    1.100840
H      4.432512    0.575858    1.408759
