29

C      2.980086    1.163168    2.641061
C      1.787945    0.788229    1.798396
C      1.928033   -0.108654    0.726163
C      0.802887   -0.412231   -0.057013
C     -0.428033    0.195469    0.237858
O     -0.504957    1.062902    1.244755
C      0.530054    1.381091    2.014187
O      0.367434    2.222071    2.938191
C     -1.649035   -0.097278   -0.559624
C     -2.589969    0.861215   -0.682877
C     -3.844397    0.717265   -1.501364
O     -4.743627   -0.156829   -0.875124
C     -1.776972   -1.422511   -1.275290
O      3.188558   -0.672252    0.465101
C      3.461136   -1.592350   -0.586947
H      3.546781    1.974430    2.138344
H      3.649124    0.288967    2.786756
H      2.669813    1.510112    3.649053
H      0.887244   -1.087802   -0.896348
H     -2.438735    1.821181   -0.202456
H     -3.598036    0.333037   -2.513710
H     -4.318357    1.715971   -1.634037
H     -5.115218    0.329701   -0.093233
H     -1.189339   -2.207927   -0.755558
H     -1.407034   -1.320226   -2.316857
H     -2.825838   -1.780742   -1.293013
H      3.247357   -1.122515   -1.570169
H      4.533685   -1.873100   -0.553679
H      2.849407   -2.510392   -0.459546
