20

C     -0.770012   -0.692246   -0.884148
C     -1.940687   -0.211443   -0.061234
O     -2.313358   -0.889544    0.933560
C     -2.658143    1.031890   -0.388854
O     -2.329922    1.719015   -1.391881
O     -3.711486    1.455217    0.412071
C      0.616177   -0.214878   -0.360642
C      0.853020   -0.730924    1.083400
C      2.241329   -0.438000    1.574932
O      2.476610    0.615611    2.223044
O      3.280483   -1.314014    1.287315
C      0.698606    1.301921   -0.406680
O      1.136273    1.886132   -1.433535
O      0.228913    2.068104    0.654870
O      1.625744   -0.768714   -1.177570
H     -0.905832   -0.365329   -1.938333
H     -0.785875   -1.804264   -0.905035
H      0.702128   -1.832180    1.111701
H      0.121076   -0.284079    1.790462
H      1.434957   -0.532276   -2.123442
