26

C     -2.493690    0.698042   -1.086520
C     -1.159714   -0.028623   -1.289490
N     -0.442749   -0.121709   -0.013376
C     -1.186902   -0.607087    1.153294
C     -2.523022    0.136404    1.267452
N     -3.270551    0.090643    0.003062
C      0.997102   -0.086420    0.004941
C      1.683440    1.004717   -0.554607
C      3.082169    1.045814   -0.536117
C      3.804769   -0.001857    0.043212
C      3.130669   -1.088723    0.605417
C      1.733491   -1.132503    0.589134
Cl     3.928906    2.414177   -1.234414
H     -3.083242    0.650144   -2.027257
H     -2.306085    1.771542   -0.862834
H     -1.348339   -1.053301   -1.676826
H     -0.562505    0.518980   -2.049287
H     -1.372261   -1.697850    1.045407
H     -0.604122   -0.436755    2.085068
H     -3.133296   -0.329671    2.070690
H     -2.339974    1.194639    1.557790
H     -3.471599   -0.908946   -0.237717
H      1.131659    1.828705   -0.989232
H      4.886850    0.025889    0.059657
H      3.691405   -1.899257    1.052767
H      1.227592   -1.986993    1.019785
