49

C     -2.280106   -1.067845   -1.480647
C     -2.403466   -0.134164   -0.269189
C     -2.047472   -0.824047    1.077610
C     -2.693062    0.114079    2.115935
C     -3.350744    1.204006    1.234256
C     -3.822511    0.422295   -0.002390
C     -4.415511    1.323063   -1.129945
C     -4.919793   -0.642219    0.312305
C     -2.192557    2.075579    0.689517
C     -1.538802    1.163582   -0.372417
O     -0.162100    0.942787   -0.056055
C      0.789546    0.501902   -0.983212
O      0.494054    0.425302   -2.207763
C      2.146886    0.136586   -0.521427
C      3.130630   -0.275735   -1.437324
C      4.419332   -0.626899   -0.993455
C      4.715916   -0.563530    0.371901
C      3.741490   -0.154449    1.300100
C      2.465135    0.192054    0.845573
O      3.999566   -0.079367    2.677169
C      5.248349   -0.401245    3.280829
O      5.430351   -1.042876   -1.873173
C      5.274923   -1.156188   -3.284055
H     -1.254720   -1.488002   -1.535624
H     -2.991217   -1.915356   -1.394187
H     -2.492230   -0.516828   -2.420684
H     -0.953639   -0.922103    1.243572
H     -2.474622   -1.847581    1.141897
H     -1.933455    0.534096    2.811302
H     -3.453062   -0.418213    2.726738
H     -4.142642    1.784559    1.754670
H     -5.355497    1.797382   -0.775032
H     -4.656884    0.707219   -2.022244
H     -3.759041    2.141746   -1.474719
H     -5.834335   -0.135859    0.688702
H     -5.192106   -1.197637   -0.610182
H     -4.639254   -1.397993    1.067776
H     -2.580618    3.012006    0.235020
H     -1.477352    2.368386    1.489934
H     -1.615585    1.635891   -1.376420
H      2.890874   -0.321806   -2.490913
H      5.710241   -0.836438    0.698719
H      1.721907    0.503234    1.569544
H      6.045314    0.264981    2.888129
H      5.505481   -1.463359    3.083284
H      5.169828   -0.252916    4.377265
H      5.020680   -0.167384   -3.720935
H      4.481689   -1.895821   -3.522737
H      6.230191   -1.504871   -3.727018
