13

C      0.076271   -1.325972    0.260850
C      0.783117   -0.168880   -0.025240
N     -0.059240    0.872213   -0.170903
C     -1.295768    0.380207    0.021497
C     -1.259008   -0.971205    0.290450
O     -2.454577    1.146055   -0.044898
C      2.243068   -0.067064   -0.156065
O      2.968217   -1.085565   -0.006073
O      2.833075    1.156468   -0.446692
H      0.483375   -2.314485    0.428840
H      0.191503    1.862395   -0.388955
H     -2.101488   -1.621419    0.484875
H     -2.408546    2.137252   -0.247688
