29

C      3.563214   -0.153962    0.988019
C      2.145698   -0.458119    0.570335
C      1.767718   -1.799591    0.474110
C      0.473859   -2.168922    0.107952
C     -0.517875   -1.180247   -0.097045
C     -0.138194    0.194277   -0.052615
C      1.206109    0.554220    0.244602
C      1.579132    1.995855    0.165635
O      2.777464    2.380514    0.204641
C      0.529035    3.003999    0.024823
C     -0.741447    2.647895   -0.152140
C     -1.099725    1.204322   -0.341689
C     -2.360148    0.822810   -0.845306
C     -2.744983   -0.521139   -0.842881
C     -1.865234   -1.511062   -0.403551
O     -2.386080   -2.800826   -0.264968
O     -4.024588   -0.895023   -1.259468
O     -3.233715    1.765001   -1.377626
O     -1.702286    3.659459   -0.093808
O      0.207040   -3.522799   -0.094259
H      4.079937   -1.056018    1.380156
H      3.568809    0.599195    1.803626
H      4.142320    0.217044    0.116689
H      2.497941   -2.578468    0.659877
H      0.785512    4.051678    0.130614
H     -2.033436   -3.475238    0.399801
H     -4.711979   -0.221586   -1.575588
H     -2.679218    3.483165    0.095299
H      0.915120   -4.236434    0.034763
