16

C      0.298709    1.254159   -0.202930
C      1.666963    1.110910   -0.422283
C      2.245184   -0.154200   -0.332254
O      3.483648   -0.292980   -0.518100
N      1.472278   -1.238372   -0.049918
C      0.127266   -1.136241    0.149224
C     -0.493211    0.138033    0.108087
C     -1.925771    0.350910    0.410696
O     -2.518952   -0.365061    1.261036
O     -2.615172    1.393673   -0.202627
O     -0.597928   -2.312571    0.355571
H     -0.136679    2.244972   -0.249696
H      2.273068    1.979358   -0.649726
H      1.918323   -2.182865   -0.004688
H     -3.590443    1.568007    0.008845
H     -1.607282   -2.357732    0.338763
