49

C      1.975417   -0.216403    0.186505
C      0.618411    0.105305    0.284986
C     -0.267332   -0.206742   -0.763092
C      0.235928   -0.839147   -1.909526
C      1.592411   -1.159890   -2.008799
C      2.475638   -0.862483   -0.957427
C      3.913413   -1.202446   -1.078339
O      4.427528   -1.310622   -2.225456
N      4.724184   -1.426675    0.087527
C      6.190901   -1.457396    0.021839
C      6.749054   -0.019443   -0.054020
C      6.356178    0.843414    1.155140
C      6.942769    2.213699    1.030688
O      6.308976    3.122280    0.432413
O      8.210739    2.475679    1.533990
C      6.770850   -2.240705    1.176430
O      7.988721   -2.121918    1.477058
O      5.994525   -3.169941    1.859322
N     -1.670498    0.109860   -0.691290
C     -2.287127    0.765854    0.463542
C     -3.759542    0.953440    0.242789
C     -4.245019    2.054935   -0.479862
N     -5.581643    2.181848   -0.695947
C     -6.456699    1.253730   -0.229739
C     -5.973614    0.144706    0.481370
N     -4.637057    0.017001    0.697304
C     -6.891032   -0.801258    0.946150
O     -6.495775   -1.812451    1.587540
N     -8.219922   -0.625662    0.702726
C     -8.670311    0.460821    0.010109
N     -7.788503    1.389361   -0.450339
N    -10.066456    0.629547   -0.236154
H      2.631777    0.066516    0.998563
H      0.272001    0.603121    1.180183
H     -0.425491   -1.085722   -2.730654
H      1.948714   -1.652102   -2.905380
H      4.259567   -1.502359    1.020186
H      6.500319   -1.995432   -0.900802
H      6.366522    0.462097   -0.981022
H      7.857677   -0.058100   -0.140869
H      6.726325    0.379566    2.094098
H      5.249890    0.926800    1.223060
H     -2.274613   -0.146500   -1.506516
H     -1.807830    1.754944    0.630854
H     -2.130112    0.142518    1.370440
H     -3.566689    2.803549   -0.868632
H     -8.903588   -1.335105    1.052497
H    -10.758221   -0.072048    0.109557
H    -10.411360    1.459961   -0.767174
