28

C     -4.376083    1.644172   -0.181210
C     -3.745021    0.676782   -0.783023
C     -3.109105   -0.293447   -1.384324
C     -1.605507   -0.314984   -1.449226
C     -1.004496   -0.549227   -0.041940
C      0.528428   -0.457322   -0.033542
C      1.076888   -0.545282    1.395355
N      2.538590   -0.476487    1.390673
C      3.304873    0.718731    1.149112
N      2.740763    1.882309    1.041844
N      4.725714    0.627283    1.044013
N     -1.185074   -1.348917   -2.399854
H     -4.154609    1.872229    0.852559
H     -5.118733    2.220546   -0.715797
H     -3.686765   -1.049472   -1.901503
H     -1.265368    0.675067   -1.830631
H     -1.404149    0.223895    0.651239
H     -1.319936   -1.544335    0.342766
H      0.842913    0.500465   -0.499723
H      0.958065   -1.293357   -0.625978
H      0.765743   -1.517404    1.837147
H      0.657029    0.256147    2.039949
H      3.061246   -1.359435    1.588927
H      1.713166    2.039462    1.119606
H      5.206490   -0.295389    1.130715
H      5.302243    1.482240    0.878002
H     -0.184073   -1.193899   -2.658437
H     -1.263230   -2.293849   -1.956720
