30

C     -1.632301   -1.356231    0.829045
C     -2.669964   -0.265503    1.094329
C     -2.738899    0.494515   -0.247014
C     -1.819804    1.765062   -0.249531
C     -0.387347    1.303777   -0.281471
N      0.709168    2.081280   -0.063223
C      1.710124    1.174009   -0.132935
C      1.224060   -0.069040   -0.373416
N     -0.101920    0.001308   -0.493141
C     -1.148571   -1.017082   -0.575316
O     -2.260178   -0.423746   -1.213414
N      2.008657   -1.169965   -0.425985
C      3.355727   -1.005380   -0.247343
N      3.878647    0.246761   -0.012120
C      3.072511    1.350974    0.055555
O      3.555649    2.491093    0.287976
N      4.216599   -2.142624   -0.302623
O     -2.069597    2.535635   -1.393682
O     -3.917080   -0.816719    1.443186
H     -0.804421   -1.327525    1.571491
H     -2.092037   -2.368900    0.833414
H     -2.333139    0.395489    1.922728
H     -3.785989    0.785718   -0.482402
H     -1.989521    2.376528    0.666329
H     -0.795882   -1.911793   -1.131622
H      4.908878    0.357558    0.125344
H      5.246740   -2.039105   -0.167821
H      3.822798   -3.093377   -0.479209
H     -2.926830    3.010246   -1.234051
H     -4.236077   -1.362964    0.676925
