38

C     -1.754123    1.784597    1.334023
C     -1.177454    0.490883    0.788134
N     -1.917257   -0.390976    0.178688
C     -3.315440   -0.207138   -0.060291
C     -3.935079    0.974131    0.332242
N     -3.160929    1.986852    0.976015
N     -5.259564    1.159070    0.095389
C     -5.999097    0.198787   -0.521989
N     -5.410102   -0.967189   -0.913990
C     -4.083635   -1.186278   -0.696063
O     -3.553975   -2.268119   -1.067515
N     -7.389754    0.418997   -0.757580
C      0.280733    0.194440    0.990854
N      0.993942    0.192780   -0.288462
C      2.399001   -0.100730   -0.409845
C      3.194903   -0.396776    0.711068
C      4.561983   -0.680294    0.567591
C      5.155956   -0.670564   -0.714490
C      4.352032   -0.372362   -1.829980
C      2.993140   -0.091663   -1.677915
C      6.599454   -0.965676   -0.910251
O      7.101629   -0.935827   -2.066768
O      7.419021   -1.278858    0.170722
O      5.320658   -0.969470    1.702023
H     -1.159982    2.636598    0.940755
H     -1.663550    1.778177    2.440753
H     -3.625781    2.877785    1.261605
H     -5.981817   -1.702158   -1.389204
H     -7.973045   -0.307756   -1.228594
H     -7.839351    1.313388   -0.460510
H      0.378361   -0.800946    1.475520
H      0.733424    0.958377    1.659634
H      0.463451    0.422610   -1.160796
H      2.764667   -0.409219    1.703026
H      4.772952   -0.356028   -2.827583
H      2.400267    0.133736   -2.555664
H      8.402768   -1.480753    0.037399
H      4.911593   -0.982427    2.629175
