37

C      1.821271   -1.828960   -1.121419
C      1.063261   -1.019462   -0.084907
N      1.664552   -0.181740    0.710815
C      3.070749    0.074421    0.657795
C      3.853897   -0.559117   -0.300759
N      3.237584   -1.464232   -1.217386
N      5.187319   -0.308950   -0.363832
C      5.777073    0.556407    0.504248
N      5.026406    1.187277    1.452205
C      3.686043    0.963369    1.543386
O      3.006086    1.557080    2.423202
N      7.180957    0.799923    0.416440
C     -0.418508   -1.216490    0.059508
N     -1.145290   -0.009727   -0.341362
C     -2.579220    0.107450   -0.272989
C     -3.189782    1.305807   -0.671814
C     -4.580095    1.454334   -0.621509
C     -5.387453    0.401284   -0.147234
C     -4.777439   -0.805360    0.232697
C     -3.389077   -0.951435    0.175644
C     -6.860530    0.527308   -0.064762
O     -7.586783   -0.473962   -0.303167
O     -7.469667    1.724554    0.306038
O     -5.144765    2.641469   -1.075460
H      1.345758   -1.676804   -2.113529
H      1.745629   -2.905626   -0.860308
H      3.825726   -1.932398   -1.942881
H      5.483442    1.852311    2.116845
H      7.755087    0.316886   -0.309699
H      7.650220    1.461170    1.074236
H     -0.645286   -1.455133    1.120964
H     -0.750732   -2.068642   -0.572236
H     -0.602409    0.808620   -0.702965
H     -2.583550    2.126606   -1.035110
H     -5.376447   -1.633970    0.590777
H     -2.958046   -1.893521    0.485272
H     -6.935981    2.519255    0.634989
