33

C     -0.425415    1.277825   -0.419482
C     -0.708370   -0.094933    0.236840
N      0.448424   -0.440131    1.087111
C      1.781852   -0.243941    0.587368
C      1.982096    0.579213   -0.523532
N      0.861597    1.244547   -1.114638
N      3.231185    0.751234   -1.026773
C      4.305256    0.145157   -0.454229
N      4.136613   -0.644875    0.644239
C      2.899526   -0.850876    1.175359
O      2.766628   -1.592809    2.185750
N      5.607030    0.345701   -1.004828
C     -2.071828   -0.097134    1.016715
C     -3.272170   -0.626529    0.173596
C     -3.574597    0.211760   -1.082745
O     -4.792690   -0.181616   -1.656242
O     -4.421901   -0.712239    0.980133
O     -1.991471   -0.852440    2.201227
H     -1.215918    1.568843   -1.136290
H     -0.379871    2.059896    0.369301
H     -0.758527   -0.855742   -0.573454
H      0.336378   -0.836725    2.045393
H      0.975893    1.755101   -2.018949
H      4.967031   -1.103881    1.083184
H      6.443559   -0.109922   -0.577293
H      5.736135    0.952561   -1.844637
H     -2.305864    0.945238    1.326351
H     -3.030222   -1.657836   -0.165513
H     -3.647384    1.285931   -0.809542
H     -2.761494    0.089552   -1.831884
H     -4.632907   -1.060771   -2.089355
H     -4.647548    0.208843    1.275851
H     -1.841025   -1.799552    1.940967
