39

C     -1.390324   -0.924294    0.928977
C     -0.981211   -0.270323   -0.408349
N     -1.955442    0.769987   -0.765966
C     -3.359355    0.545747   -0.560128
C     -3.772601   -0.520776    0.242550
N     -2.790412   -1.345589    0.877966
N     -5.096334   -0.764879    0.419927
C     -6.037701    0.025907   -0.160730
N     -5.657333    1.084244   -0.931599
C     -4.340258    1.359158   -1.142561
O     -4.012200    2.338132   -1.865737
N     -7.422117   -0.254856    0.045576
C      0.437954    0.326562   -0.336490
N      1.459555   -0.715603   -0.197273
C      2.862150   -0.428636   -0.039584
C      3.765605   -1.489049    0.124353
C      5.133019   -1.244568    0.280384
C      5.627033    0.071373    0.280013
C      4.723900    1.133614    0.101754
C      3.356403    0.888643   -0.052939
C      7.075588    0.348743    0.439529
O      7.550841    1.442393    0.032856
O      7.936700   -0.565422    1.045713
H     -1.269883   -0.192604    1.757185
H     -0.750755   -1.805729    1.146484
H     -1.002702   -1.048844   -1.203061
H     -1.635762    1.644989   -1.240462
H     -3.087520   -2.207836    1.387606
H     -6.385776    1.691455   -1.371627
H     -7.713060   -1.064272    0.637543
H     -8.158867    0.342507   -0.390904
H      0.498097    1.027603    0.524551
H      0.640486    0.895720   -1.269706
H      1.167446   -1.719052   -0.230691
H      3.409760   -2.511819    0.126468
H      5.797732   -2.091994    0.375276
H      5.074066    2.158508    0.091578
H      2.694636    1.733529   -0.184800
H      7.608643   -1.414860    1.486315
