24

C     -3.570139    0.722878    0.731582
C     -2.874371   -0.074026    1.644961
C     -1.776334   -0.829670    1.221971
C     -1.373128   -0.799604   -0.123737
C     -2.069045    0.014792   -1.033057
C     -3.166534    0.768792   -0.605731
C     -0.170707   -1.581599   -0.572718
C      1.060790   -0.747982   -0.430193
N      1.807771   -0.709923    0.695659
C      2.779675    0.174538    0.399047
C      2.575229    0.635820   -0.889708
O      1.509227    0.052150   -1.372199
O      3.334346    1.560791   -1.603103
C      3.841437    0.536504    1.348769
O      4.738194    1.366728    1.050041
H     -4.418903    1.308179    1.060937
H     -3.183671   -0.103461    2.681754
H     -1.239738   -1.435515    1.941694
H     -1.760417    0.066717   -2.069897
H     -3.701928    1.391588   -1.310677
H     -0.064716   -2.509112    0.030838
H     -0.285806   -1.890620   -1.634141
H      4.155737    2.003668   -1.215494
H      3.853032    0.078366    2.328912
