49

C     -5.065294    2.107830   -0.282652
C     -5.287292    0.717692    0.320782
C     -4.397083   -0.396860   -0.282116
C     -4.696699   -0.612121   -1.775733
C     -2.892239   -0.129243   -0.019281
C     -1.955715   -1.320552   -0.333525
C     -2.200365   -2.522579    0.589266
C     -0.527024   -0.873749   -0.198922
O      0.225219   -0.868425   -1.211781
O     -0.049486   -0.453801    1.052114
C      1.275539    0.033138    1.293769
C      1.502442    1.299643    0.479700
C      2.626178    1.514836   -0.222354
C      3.700747    0.508289   -0.311415
C      4.881273    0.801032   -1.007989
C      5.888029   -0.173494   -1.111006
N      5.686710   -1.397408   -0.549581
C      4.550542   -1.708922    0.126821
C      3.531127   -0.756708    0.266978
C      2.283026   -1.061271    0.993328
O      2.062104   -2.233449    1.405029
C      7.152405    0.077182   -1.836500
O      7.872601   -0.900675   -2.170025
O      7.590899    1.364099   -2.147766
O      0.505239    2.276883    0.497173
C      1.383636    0.392644    2.780476
H     -5.770401    2.825618    0.186903
H     -5.257997    2.102829   -1.375113
H     -4.033983    2.465934   -0.085876
H     -5.107482    0.775306    1.416596
H     -6.356238    0.441904    0.186730
H     -4.689956   -1.326405    0.249339
H     -4.290515   -1.587306   -2.114908
H     -5.793114   -0.633169   -1.952859
H     -4.248157    0.194081   -2.393714
H     -2.755880    0.160014    1.046820
H     -2.570026    0.738339   -0.636362
H     -2.114710   -1.650140   -1.382557
H     -1.413314   -3.291763    0.433055
H     -2.187038   -2.211939    1.656169
H     -3.174544   -3.000874    0.360640
H      2.743494    2.450561   -0.756148
H      4.989855    1.767704   -1.480064
H      4.448363   -2.697393    0.555305
H      7.120361    2.198418   -1.823918
H      0.593236    3.145803   -0.017330
H      1.187643   -0.501109    3.411550
H      0.635113    1.169594    3.047793
H      2.398773    0.779986    3.017439
