24

C      3.729115    0.119207   -0.008557
C      2.264052   -0.233326   -0.100481
C      1.326247    0.686411    0.223142
C     -0.141026    0.361072    0.140826
C     -1.126263    1.272626    0.577271
C     -2.489297    0.961206    0.483235
C     -2.891218   -0.269277   -0.039646
C     -1.930577   -1.193476   -0.459663
C     -0.561081   -0.892330   -0.366863
C      0.447706   -1.884280   -0.781476
O      0.104007   -3.002565   -1.253030
C      1.867646   -1.557745   -0.633030
O      2.739911   -2.403429   -0.970636
O     -4.249156   -0.569690   -0.133771
O     -3.452601    1.873286    0.912167
O      1.767690    1.953799    0.623456
H      4.372017   -0.784652   -0.040734
H      3.945338    0.639577    0.948808
H      4.005083    0.782091   -0.855354
H     -0.865383    2.225203    1.007948
H     -2.256260   -2.148789   -0.852602
H     -4.572389   -1.454631   -0.507037
H     -3.196937    2.775141    1.297122
H      1.163377    2.744571    0.788906
