50

C      0.377292   -1.157377    0.283922
C     -0.993736   -1.417417    0.206345
C     -1.920970   -0.360771    0.172025
C     -1.444090    0.962632    0.191566
C     -0.072343    1.221050    0.268083
C      0.846515    0.163345    0.330281
C      2.324579    0.441854    0.377005
C      2.900306    0.526324   -1.038940
C      4.379638    0.767405   -0.993017
C      5.016091    2.006238   -1.051278
N      6.353692    1.859267   -0.907190
C      6.556418    0.542008   -0.747159
C      5.387970   -0.157444   -0.785782
C      5.405528   -1.538088   -0.609035
O      4.343572   -2.215750   -0.630256
N      6.613727   -2.146061   -0.409124
C      7.779687   -1.418982   -0.377158
N      7.751255   -0.062270   -0.544453
N      9.028982   -2.076061   -0.164600
C     -3.372253   -0.650672    0.082977
O     -3.753520   -1.752486   -0.399488
N     -4.349314    0.294381    0.551970
C     -5.784017    0.112122    0.307326
C     -6.603714    1.085119    1.183450
C     -8.123808    0.875182    1.084748
C     -8.541902   -0.447352    1.650360
O     -8.833027   -1.402177    0.882787
O     -8.580196   -0.634171    3.026321
C     -6.071768    0.333754   -1.151459
O     -6.703113   -0.533352   -1.811022
O     -5.657721    1.504236   -1.775915
H      1.073969   -1.986412    0.306277
H     -1.329434   -2.446815    0.180993
H     -2.123320    1.801515    0.119559
H      0.274338    2.247200    0.270517
H      2.838923   -0.363001    0.947193
H      2.512411    1.397788    0.914366
H      2.695722   -0.414669   -1.593235
H      2.410828    1.357874   -1.591674
H      4.524604    2.961934   -1.179637
H      7.073638    2.615383   -0.904758
H      6.648640   -3.182331   -0.276478
H      9.915912   -1.525673   -0.137521
H      9.072172   -3.110945   -0.033666
H     -4.032083    1.107361    1.126799
H     -6.057838   -0.928735    0.588781
H     -6.294321    0.969324    2.245910
H     -6.370561    2.132124    0.888349
H     -8.461542    0.965748    0.029836
H     -8.631817    1.677845    1.660832
