23

C      2.459457    0.756356   -0.693688
C      3.150304    0.096559    0.331437
N      2.445127   -0.516419    1.327570
C      1.082335   -0.519405    1.350032
O      0.480580   -1.104192    2.292341
C      0.351991    0.112541    0.325530
C      1.064675    0.777071   -0.691399
O      0.402356    1.487758   -1.687038
C     -1.130741    0.106174    0.371124
C     -1.886020   -0.105310   -0.715192
C     -3.363659   -0.121017   -0.686486
O     -3.978607    0.200419   -1.737730
C     -4.148052   -0.536374    0.497168
O     -3.607088   -1.192711    1.425661
O     -5.507918   -0.246500    0.583253
C      4.629595    0.074956    0.336946
O      5.255554   -0.512265    1.258590
O      5.349154    0.701248   -0.674423
H      2.994609    1.266170   -1.485366
H      2.954264   -1.003115    2.100344
H     -1.598499    0.236826    1.337855
H     -1.411814   -0.236361   -1.679692
H     -5.987605    0.277593   -0.138676
