45

C     -1.153645   -1.477831    0.259346
C     -0.038243   -2.071355   -0.431700
C     -0.985614   -2.493182   -1.510968
O     -0.882615   -3.133458   -2.589489
N     -2.097176   -1.849048   -0.777256
C     -3.538497   -1.746808   -0.984693
C     -4.053814   -0.421793   -0.465458
C     -4.434003    0.586497   -1.368735
C     -4.881718    1.825566   -0.900662
C     -4.946967    2.077968    0.472645
C     -4.559994    1.084173    1.380533
C     -4.112615   -0.155971    0.916144
O     -5.394722    3.317448    0.923960
C     -4.254495   -2.902920   -0.344282
O     -3.773393   -3.481164    0.666511
O     -5.486226   -3.309247   -0.841583
N      0.925838   -1.077476   -0.907573
C      1.837895   -0.426621   -0.011519
O      1.919155   -0.805603    1.188708
C      2.701583    0.680645   -0.484164
N      2.216861    1.621761   -1.240191
O      0.895267    1.661917   -1.624022
C      4.125604    0.757713   -0.061646
C      4.836697   -0.403275    0.300230
C      6.177342   -0.323156    0.688738
C      6.829845    0.911966    0.718105
C      6.136095    2.071967    0.352846
C      4.795777    1.996349   -0.037596
O      8.165318    0.975705    1.109116
H     -1.388440   -1.995283    1.215419
H     -1.097470   -0.371199    0.367172
H      0.434474   -2.930677    0.092370
H     -3.726276   -1.815412   -2.078574
H     -4.383487    0.416133   -2.437032
H     -5.175062    2.592092   -1.606719
H     -4.601770    1.272731    2.445744
H     -3.807871   -0.906128    1.634455
H     -5.453746    3.531045    1.912777
H      1.011238   -0.895428   -1.933779
H      0.562039    2.413580   -2.213848
H      4.364450   -1.376706    0.267835
H      6.711339   -1.224030    0.963367
H      6.633944    3.033102    0.371416
H      4.280824    2.909363   -0.309578
H      8.666275    1.856048    1.141615
