31

C      4.652901    1.308979   -0.454464
C      4.116405    1.829134    0.727241
C      2.898310    1.348723    1.216864
C      2.212465    0.344034    0.524690
C      2.747912   -0.183833   -0.668827
C      3.974330    0.305802   -1.154051
C      2.020112   -1.186498   -1.331310
O      2.449371   -1.690270   -2.405327
N      0.837795   -1.618826   -0.812629
C      0.346233   -1.101323    0.349260
N      1.029543   -0.122275    0.998946
C     -0.977979   -1.556731    0.885024
C     -2.088251   -0.763526    0.253512
C     -2.475187    0.471042    0.800266
C     -3.482811    1.226282    0.192583
C     -4.106153    0.762056   -0.970268
C     -3.715233   -0.463350   -1.526983
C     -2.707858   -1.220496   -0.921244
O     -5.108430    1.525021   -1.565045
H      5.596273    1.684561   -0.829334
H      4.645476    2.605806    1.264213
H      2.490030    1.757648    2.132891
H      4.407206   -0.082088   -2.067940
H      0.299301   -2.359380   -1.317694
H     -1.113529   -2.641934    0.684697
H     -0.999538   -1.430107    1.989587
H     -1.994845    0.848616    1.694567
H     -3.776964    2.174862    0.623511
H     -4.188375   -0.827737   -2.429923
H     -2.410047   -2.160957   -1.368122
H     -5.578463    1.216765   -2.408213
