32

C     -5.480096    1.137078   -1.664263
C     -4.572039    0.370357   -2.398651
C     -3.352946   -0.010110   -1.828741
C     -3.032554    0.375148   -0.515275
C     -3.953011    1.147030    0.216284
C     -5.170703    1.525008   -0.358240
C     -1.743994   -0.028089    0.083096
N     -1.365532    0.295749    1.342317
C     -0.141082   -0.252641    1.455940
C      0.153884   -0.910846    0.283925
O     -0.841176   -0.749197   -0.548576
O      1.284533   -1.672203    0.017276
C      0.647533   -0.217218    2.699806
N      1.864763    0.240107    2.776579
C      2.685412    0.745334    1.676276
C      3.600947   -0.328350    1.171578
C      4.418285   -0.098715    0.139752
C      5.321116   -1.129238   -0.396736
O      5.356439   -2.286345    0.103522
O      6.144830   -0.817703   -1.473159
H     -6.422950    1.430740   -2.107163
H     -4.812815    0.070262   -3.410369
H     -2.662394   -0.604622   -2.414004
H     -3.732612    1.458267    1.229709
H     -5.874882    2.119277    0.209702
H      1.396890   -2.128574   -0.879437
H      0.141189   -0.476326    3.619685
H      2.053722    1.146433    0.854379
H      3.306257    1.581780    2.060944
H      3.585864   -1.300879    1.650598
H      4.421784    0.877018   -0.331769
H      6.775337   -1.508533   -1.862298
