41

C      4.363046    0.861498   -1.752505
C      4.311909   -0.110508   -0.597108
C      3.861643    0.252788    0.624284
C      3.376860    1.640542    0.972777
N      2.202423    2.007631    0.186067
C      0.970312    1.580399    0.236065
C      0.461441    0.634445    1.151430
C     -0.845973    0.251437    1.072467
N     -1.147040   -0.646342    2.028441
C      0.028081   -0.781626    2.689030
N      1.023799   -0.014151    2.187282
N     -1.705855    0.757823    0.145772
C     -1.214987    1.675058   -0.744312
N      0.092207    2.071214   -0.685854
C     -3.100422    0.305686    0.061307
C     -3.197234   -0.936477   -0.839624
C     -4.598300   -1.589829   -0.882807
C     -5.006465   -2.128125    0.462932
O     -5.725740   -1.447096    1.241630
O     -4.543441   -3.371420    0.874968
N     -5.621657   -0.690582   -1.426594
C      4.787557   -1.526526   -0.796222
H      4.833165    0.403616   -2.647406
H      3.336541    1.174200   -2.033922
H      4.962491    1.753901   -1.476196
H      3.886802   -0.481559    1.424360
H      3.171285    1.753710    2.055494
H      4.188784    2.362495    0.746625
H      0.153965   -1.433068    3.543750
H      1.983098    0.037901    2.579749
H     -1.856511    2.095415   -1.508805
H     -3.485151    0.079229    1.078735
H     -3.733149    1.122496   -0.348035
H     -2.898394   -0.653361   -1.872511
H     -2.465135   -1.696222   -0.486956
H     -4.527226   -2.462802   -1.568622
H     -5.740315    0.142631   -0.807108
H     -5.306435   -0.345877   -2.362521
H      5.638361   -1.736351   -0.113834
H      3.960785   -2.234126   -0.573814
H      5.124876   -1.704900   -1.838405
