19

C      1.948873   -1.295681    0.865576
C      1.921164   -0.070574    0.197356
C      0.573840    0.182490   -0.051705
C     -0.116248   -0.877592    0.467410
N      0.699403   -1.782580    1.026834
N     -1.465672   -0.965585    0.403563
C     -2.162143    0.040771   -0.201098
N     -1.498522    1.118421   -0.731953
C     -0.136070    1.214864   -0.671621
O      0.446198    2.214330   -1.166711
N     -3.585595   -0.034808   -0.277818
C      3.114656    0.730592   -0.139361
O      4.257760    0.311840    0.182871
O      3.008891    1.942012   -0.806616
H      2.838609   -1.803542    1.215266
H      0.427924   -2.677628    1.490883
H     -2.044320    1.882038   -1.192199
H     -4.092248   -0.853873    0.125469
H     -4.136500    0.724505   -0.736145
