39

C      3.569939   -0.109980    0.346965
C      2.209893   -0.822513    0.373260
C      2.009023   -1.776970   -0.825237
C      0.510020   -1.742512   -1.181085
C     -0.134635   -0.942538   -0.049870
C      0.951436    0.072997    0.363262
C      1.038338    1.306758   -0.576016
C      0.066256    2.334545    0.011092
C     -0.575213    1.633364    1.208985
C      0.513748    0.677293    1.688204
C     -1.797296    0.851446    0.716767
C     -3.017918    1.370200    0.953063
C     -1.610264   -0.388378   -0.197233
C     -1.971897   -0.015751   -1.655120
C     -2.581590   -1.515010    0.246209
H      3.608099    0.673280    1.132858
H      3.774799    0.347257   -0.643689
H      4.375816   -0.846573    0.550674
H      2.184712   -1.433485    1.305516
H      2.604559   -1.453370   -1.707321
H      2.320613   -2.807967   -0.548984
H      0.381114   -1.237134   -2.160929
H      0.085123   -2.768122   -1.240584
H     -0.178738   -1.675656    0.795050
H      0.815457    1.062072   -1.632416
H      2.044897    1.769277   -0.560735
H      0.625978    3.229228    0.364733
H     -0.682131    2.672553   -0.738737
H     -0.834374    2.359461    2.011731
H      1.348628    1.242785    2.159750
H      0.126871   -0.067090    2.419740
H     -3.135637    2.277065    1.538303
H     -3.918767    0.918095    0.555955
H     -1.917287   -0.905571   -2.317408
H     -1.314574    0.770696   -2.064666
H     -3.012615    0.368480   -1.713584
H     -2.489148   -1.705647    1.337573
H     -3.640417   -1.263336    0.027741
H     -2.352821   -2.459249   -0.293818
