28

C     -3.427004   -2.400052   -0.958061
O     -2.989064   -1.206864   -0.316076
C     -1.673335   -0.718607   -0.356982
C     -1.382765    0.473161    0.323888
C     -0.071372    0.987881    0.300437
C      0.949619    0.322662   -0.399115
C      0.646305   -0.871276   -1.073468
C     -0.650408   -1.386665   -1.054410
C      2.358130    0.886433   -0.409136
C      3.342068   -0.042520    0.320194
O      4.611052    0.549446    0.355686
O      2.778238    1.153706   -1.725106
O     -2.423751    1.116304    1.012702
C     -2.279660    2.328118    1.746472
H     -3.273912   -2.321716   -2.055162
H     -4.509097   -2.541933   -0.759869
H     -2.874295   -3.275154   -0.555680
H      0.160200    1.904845    0.825096
H      1.413433   -1.410601   -1.613764
H     -0.846815   -2.308063   -1.585265
H      2.367243    1.856216    0.135492
H      2.983116   -0.212103    1.360549
H      3.403630   -1.025332   -0.198487
H      5.198422   -0.087036    0.840341
H      2.947005    0.287397   -2.178795
H     -1.547910    2.191018    2.570463
H     -1.948919    3.146030    1.072050
H     -3.260154    2.604706    2.185166
