35

C      1.849331    1.531765   -1.486421
C      2.881272    0.428218   -1.213583
C      4.267776    1.051387   -1.005555
C      2.501721   -0.439550    0.009804
C      1.201395   -1.249939   -0.185658
C      0.001545   -0.611829    0.540437
C     -1.356724   -1.222480    0.112547
C     -1.454618   -2.698807    0.534309
C     -2.543646   -0.432338    0.717362
C     -2.771994    0.923217    0.030888
C     -4.010619    1.573824    0.561200
O     -5.117860    1.385142   -0.010106
O     -3.945410    2.352351    1.712465
H      1.700040    2.161767   -0.583384
H      2.191345    2.180692   -2.320775
H      0.878112    1.089297   -1.790838
H      2.939306   -0.225405   -2.112295
H      4.266924    1.721579   -0.118949
H      5.028550    0.256175   -0.853610
H      4.563848    1.640067   -1.900102
H      2.442512    0.191831    0.924490
H      3.326963   -1.165611    0.183559
H      1.363006   -2.266773    0.232593
H      0.978269   -1.374032   -1.267883
H     -0.001336    0.473622    0.326249
H      0.136336   -0.725161    1.638886
H     -1.438121   -1.184379   -0.996827
H     -1.317778   -2.802761    1.632119
H     -0.690148   -3.309945    0.012136
H     -2.446060   -3.116361    0.257172
H     -2.379733   -0.278939    1.807316
H     -3.475861   -1.029700    0.601302
H     -1.917240    1.605636    0.213940
H     -2.873611    0.780964   -1.067182
H     -4.777492    2.786476    2.093691
