24

C      1.123737   -0.611105   -1.691091
C      0.189823    0.125322   -0.700722
N      1.088805    0.743572    0.272006
C      2.307951    0.481015   -0.042914
N      2.454336   -0.315299   -1.198849
N      3.415436    0.950377    0.721796
C     -0.788197   -0.838075   -0.000853
C     -1.746505   -0.118041    0.975266
C     -2.675784    0.814553    0.241542
O     -3.606073    0.350099   -0.469812
O     -2.497713    2.193785    0.311096
N     -2.531821   -1.086465    1.744303
H      1.006094   -0.209627   -2.720500
H      0.964449   -1.711392   -1.696619
H     -0.368257    0.920113   -1.242233
H      3.354505   -0.639891   -1.616335
H      4.390541    0.712558    0.435093
H      3.261017    1.534455    1.573426
H     -0.200959   -1.597371    0.561944
H     -1.382384   -1.377558   -0.771511
H     -1.143607    0.476113    1.696866
H     -1.746097    2.602355    0.853401
H     -1.882466   -1.633052    2.355933
H     -2.986831   -1.766440    1.091545
