12

C      1.991306    0.111280    0.077079
C      0.665503    0.037189    0.025764
C     -0.124691   -1.134386   -0.321481
C     -1.401876   -0.785212   -0.252815
C     -1.495816    0.623287    0.140630
C     -0.274519    1.112076    0.306029
H      2.598378   -0.755103   -0.152290
H      2.478731    1.038818    0.348843
H      0.246869   -2.115253   -0.588444
H     -2.236340   -1.442790   -0.456729
H     -2.411472    1.183063    0.276805
H     -0.036073    2.127031    0.596608
