50

C     -4.383771    0.758838    0.422324
C     -4.725437    2.097992    0.213921
C     -3.912696    3.119265    0.723569
C     -2.759098    2.793708    1.443628
C     -2.415781    1.455410    1.654398
C     -3.224633    0.426235    1.143254
C     -2.831868   -1.022172    1.335969
C     -1.930073   -1.578322    0.196560
C     -0.643084   -0.754176    0.121683
N      0.264827   -0.942381    1.040972
C      1.544551   -0.246809    1.172462
C      2.546799   -0.738650    0.113128
C      3.894457    0.026073    0.235411
C      5.011835   -0.501156   -0.708572
C      4.682183   -0.401573   -2.210750
O      4.565235    0.932305   -2.629139
O      6.209137    0.190094   -0.457911
O      3.726362    1.415913    0.082647
O      2.757505   -2.115549    0.306096
N     -0.496822    0.288887   -0.860371
C     -1.411173    0.413730   -1.945676
O     -1.270948    1.343769   -2.783530
N     -2.473600   -0.521251   -2.093672
C     -2.702520   -1.540013   -1.118175
O     -3.618401   -2.381848   -1.325817
N     -1.585980   -2.983713    0.498377
O     -4.241643    4.457412    0.519874
H     -5.018489   -0.018529    0.015832
H     -5.619555    2.340918   -0.345920
H     -2.126800    3.578728    1.838390
H     -1.515484    1.221300    2.208933
H     -3.752282   -1.641908    1.418914
H     -2.306444   -1.128494    2.311218
H      1.952772   -0.467105    2.181977
H      1.391989    0.852071    1.122408
H      2.104785   -0.550840   -0.891725
H      4.261277   -0.139908    1.272656
H      5.173202   -1.582621   -0.488944
H      3.738903   -0.936597   -2.440534
H      5.481352   -0.914196   -2.794008
H      5.487869    1.275967   -2.755553
H      6.573248   -0.160903    0.396847
H      3.125957    1.573225   -0.691280
H      2.861435   -2.527226   -0.591081
H      0.281058    0.981454   -0.806152
H     -3.094702   -0.463548   -2.931982
H     -2.447354   -3.574509    0.562952
H     -0.968884   -3.374289   -0.251653
H     -1.087153   -3.061425    1.414856
H     -5.072064    4.726418    0.005173
