28

C      0.550577   -0.675949    1.529676
C      1.669514   -1.060605    0.604177
C      2.080066    0.279293    0.006678
O      0.938663    1.102742   -0.042087
C      0.050408    0.652421    0.961849
N     -1.312920    0.503285    0.409931
C     -1.482370   -0.039383   -0.835625
C     -2.756740   -0.218713   -1.365856
C     -3.855768    0.149288   -0.597819
O     -5.021149   -0.000497   -1.052723
N     -3.669212    0.664885    0.645019
C     -2.418049    0.835265    1.156219
O     -2.290610    1.296954    2.323775
C      2.669431    0.122505   -1.397613
O      3.061546    1.375374   -1.885579
O      2.723571   -1.652977    1.316953
H      0.930941   -0.520642    2.564498
H     -0.239384   -1.459180    1.551630
H      1.275117   -1.754133   -0.176599
H      2.838435    0.766428    0.662187
H      0.060481    1.417193    1.770228
H     -0.629033   -0.342083   -1.429721
H     -2.884285   -0.641558   -2.354843
H     -4.501154    0.929694    1.220974
H      1.908630   -0.321913   -2.078344
H      3.553875   -0.551822   -1.356158
H      3.429647    1.214377   -2.793083
H      3.319772   -2.070246    0.642256
