45

C      7.346235    1.815410   -0.492920
C      6.989291    1.221671    0.864984
O      6.371779   -0.054821    0.710157
C      5.045526   -0.228329    0.298582
N      4.229312    0.844644    0.078670
N      2.974985    0.643627   -0.318395
C      2.450126   -0.571373   -0.525562
C      1.127008   -0.411233   -0.900589
C      0.931673    0.968660   -0.869334
N      2.079326    1.593314   -0.517354
C      0.108013   -1.423661   -1.233904
N     -1.192786   -1.176106   -0.925182
C     -2.177275   -2.069162   -1.216837
N     -1.865504   -3.223405   -1.863694
C     -0.583801   -3.507050   -2.210403
C      0.436588   -2.606848   -1.907106
N     -3.547005   -1.782393   -0.900380
C     -3.969959   -0.698376   -0.055786
C     -5.170561   -0.031034   -0.342199
C     -5.622064    1.016971    0.469816
C     -4.863890    1.389933    1.595716
C     -3.680698    0.713125    1.900918
C     -3.237194   -0.330868    1.086144
O     -6.821992    1.656999    0.125554
C     -7.397510    2.733867    0.858062
C      3.211557   -1.714376   -0.289051
C      4.539009   -1.529704    0.121925
H      7.875613    2.780943   -0.350419
H      8.010198    1.119298   -1.047751
H      6.428997    1.997333   -1.090680
H      6.321549    1.911265    1.425788
H      7.922183    1.093289    1.453263
H      0.008752    1.485343   -1.097682
H     -0.359083   -4.426111   -2.734929
H      1.447372   -2.815270   -2.229522
H     -4.282328   -2.343407   -1.387482
H     -5.752901   -0.319987   -1.208591
H     -5.184076    2.193652    2.244500
H     -3.109981    0.992785    2.777150
H     -2.337624   -0.864044    1.363355
H     -7.629688    2.409639    1.894496
H     -8.340314    3.045569    0.363778
H     -6.701735    3.599232    0.874739
H      2.803820   -2.709992   -0.388218
H      5.169054   -2.389018    0.312491
