45

C      7.110108   -0.822024    0.018019
O      6.140472   -0.511157    1.013339
C      4.817550   -0.129327    0.740828
C      3.965080    0.147708    1.819290
C      2.636971    0.532049    1.587505
C      2.148212    0.647532    0.277671
C      2.999731    0.364703   -0.800534
C      4.323928   -0.018484   -0.573291
C      0.709668    1.032843    0.037299
C     -0.262155   -0.150464    0.296126
C     -1.720955    0.278620    0.096743
C     -2.225465    1.409435    0.767310
C     -3.555721    1.808616    0.611934
C     -4.426202    1.063323   -0.198218
C     -3.949496   -0.102889   -0.821874
C     -2.619938   -0.516599   -0.650459
C     -2.172148   -1.801656   -1.287350
C     -0.923421   -2.336881   -0.593380
N      0.113142   -1.300894   -0.562434
O     -5.751977    1.500294   -0.350839
C     -6.735695    0.838525   -1.139551
O     -3.995853    2.952596    1.278129
O      4.446222    0.036897    3.122848
H      6.770139   -1.687488   -0.589115
H      7.283105    0.059355   -0.635020
H      8.065550   -1.089578    0.513886
H      1.984711    0.738601    2.427407
H      2.637336    0.436025   -1.818601
H      4.954553   -0.228777   -1.426170
H      0.576618    1.400752   -1.004180
H      0.481646    1.887803    0.705283
H     -0.159107   -0.455229    1.362747
H     -1.595024    1.986089    1.429572
H     -4.610513   -0.706218   -1.430042
H     -1.956260   -1.617984   -2.362060
H     -2.975477   -2.567295   -1.216932
H     -1.171309   -2.667741    0.440944
H     -0.550711   -3.222773   -1.153819
H      0.986792   -1.739029   -0.186964
H      0.305345   -0.981451   -1.542007
H     -6.409654    0.796035   -2.200273
H     -7.687012    1.406088   -1.083131
H     -6.910476   -0.186881   -0.750744
H     -4.948846    3.287873    1.205036
H      3.856534    0.229054    3.924257
