31

C      5.194561   -0.544546   -0.820869
N      3.755266   -0.759562   -0.908600
C      2.832895   -0.167320   -0.201291
N      3.161564    0.823715    0.793397
O      4.248521    1.624258    0.682833
N      1.460342   -0.555106   -0.406190
C      0.360794    0.152676    0.265439
C     -1.016888   -0.289067   -0.249286
C     -2.142871    0.487227    0.451595
C     -3.539303    0.100251   -0.081814
C     -3.870681   -1.332728    0.247132
O     -3.999181   -1.700613    1.445125
O     -4.026163   -2.260820   -0.774791
N     -4.565204    0.994925    0.467487
O      1.191207   -1.554518   -1.286009
H      5.540196   -0.668254    0.227498
H      5.455643    0.463958   -1.203993
H      5.709952   -1.297272   -1.451889
H      2.512979    0.993686    1.592907
H      3.934700    2.408519    0.164102
H      0.416257   -0.044947    1.357851
H      0.474087    1.245471    0.092100
H     -1.142814   -1.376981   -0.059032
H     -1.072545   -0.108111   -1.345212
H     -2.095263    0.308009    1.548691
H     -1.983250    1.574468    0.279169
H     -3.536032    0.214921   -1.189740
H     -4.571202    0.953114    1.513120
H     -5.507753    0.719248    0.106302
H     -4.375784    1.978529    0.166075
H      1.195971   -2.383132   -0.741257
