24

C      3.373847    1.088988   -0.047625
C      2.395395    1.375917   -1.003454
C      1.322886    0.499005   -1.193961
C      1.227633   -0.678249   -0.432503
C      2.208731   -0.953406    0.535062
C      3.279645   -0.073765    0.722073
C      0.057399   -1.605689   -0.609448
C     -1.035056   -1.243760    0.349606
O     -1.115616   -1.845460    1.455009
N     -1.953116   -0.189951    0.031265
C     -3.002147    0.214637    0.966101
C     -3.829889    1.324698    0.392973
O     -4.522067    1.131671   -0.593758
H      4.202636    1.769409    0.099304
H      2.466336    2.279607   -1.594881
H      0.567785    0.737503   -1.932687
H      2.142453   -1.846572    1.144042
H      4.034776   -0.291902    1.466162
H      0.375303   -2.657702   -0.439202
H     -0.327632   -1.550159   -1.650790
H     -1.852398    0.300761   -0.886872
H     -2.535744    0.562222    1.912769
H     -3.659883   -0.652555    1.190148
H     -3.821279    2.304752    0.858733
