29

C      3.539582   -2.054456    0.689769
N      2.740098   -0.872843    0.389764
C      2.822940   -0.216955   -0.886674
O      3.644779   -0.637487   -1.746184
N      1.995836    0.918203   -1.209482
C      0.936126    1.415079   -0.328225
C     -0.277532    0.478464   -0.362785
C     -1.395098    0.991118    0.557658
C     -2.576242    0.001250    0.667910
C     -3.523552    0.461606    1.743999
O     -4.204289    1.510427    1.589850
O     -3.635570   -0.260168    2.925739
N     -3.290105   -0.140655   -0.609015
O      2.229058    1.581566   -2.369482
H      3.327066   -2.402846    1.722640
H      4.619600   -1.809361    0.609533
H      3.288814   -2.869135   -0.021812
H      2.109759   -0.512961    1.138411
H      1.323009    1.541394    0.705002
H      0.615412    2.422046   -0.675649
H      0.023746   -0.542165   -0.045405
H     -0.646702    0.424298   -1.409058
H     -0.968925    1.148166    1.574029
H     -1.758913    1.974776    0.186227
H     -2.178373   -0.994837    0.967729
H     -4.151552   -0.718912   -0.473058
H     -3.563830    0.795318   -0.988207
H     -2.687451   -0.634379   -1.305359
H      1.642310    1.142866   -3.037863
