20

C      3.711729   -0.209139    0.027359
C      2.431449   -0.045537    0.779788
O      2.459331    0.136814    2.027197
N      1.181729   -0.076731    0.079882
C     -0.090873    0.085255    0.782479
C     -1.267997    0.010651   -0.195441
C     -2.606647    0.180024    0.537059
N     -3.732769    0.109628   -0.391496
H      3.668532   -1.133280   -0.586009
H      3.863342    0.665210   -0.639157
H      4.570569   -0.283705    0.727906
H      1.193596   -0.219265   -0.956143
H     -0.099606    1.070524    1.297882
H     -0.191086   -0.718330    1.544504
H     -1.160360    0.812751   -0.958193
H     -1.251686   -0.974083   -0.711941
H     -2.719884   -0.618284    1.302652
H     -2.628856    1.162446    1.057256
H     -3.622533    0.858327   -1.113710
H     -3.707980   -0.813277   -0.883356
