30

C     -0.385390    0.581768    0.322451
C      0.786658   -0.356092    0.635913
C      2.028230    0.021139   -0.180967
C      3.199839   -0.918621    0.133301
C      4.459068   -0.539336   -0.653429
O      4.249012   -0.677448   -2.033134
C     -1.632453    0.191792    1.129653
C     -2.786546    1.198484    0.969294
C     -3.383446    1.257303   -0.445984
C     -3.971375   -0.055520   -0.862595
O     -5.100532   -0.408107   -0.428363
O     -3.254346   -0.900536   -1.703838
H     -0.610176    0.521000   -0.763696
H     -0.095641    1.626854    0.569313
H      0.493612   -1.402556    0.397647
H      1.027808   -0.294541    1.720162
H      2.321368    1.067345    0.057743
H      1.785461   -0.039558   -1.264628
H      3.433151   -0.865680    1.219234
H      2.918186   -1.966957   -0.108361
H      4.734816    0.514268   -0.434337
H      5.308851   -1.181947   -0.329180
H      4.261281   -1.651252   -2.226188
H     -1.364453    0.154576    2.208368
H     -1.968827   -0.826487    0.838041
H     -3.592740    0.930062    1.686842
H     -2.428134    2.212857    1.249768
H     -2.616387    1.578593   -1.180840
H     -4.185240    2.026828   -0.461473
H     -3.631653   -1.798232   -1.982792
