43

C     -5.403546    3.174371    0.234540
O     -4.975948    1.932789   -0.316126
C     -3.689721    1.393068   -0.156683
C     -3.405809    0.156873   -0.757221
C     -2.124539   -0.410568   -0.612166
C     -1.134287    0.239838    0.143155
C     -1.421871    1.484262    0.719114
C     -2.688071    2.054298    0.578168
C      0.222715   -0.334470    0.289898
C      0.426996   -1.696972    0.593373
C      1.757920   -2.166572    0.689762
O      1.989246   -3.379100    0.941609
C      2.829967   -1.267079    0.508473
C      4.188366   -1.654392    0.594289
C      5.199917   -0.705775    0.412484
C      4.892250    0.631026    0.145765
C      3.544795    1.021062    0.058540
C      2.522130    0.083759    0.236155
O      1.260762    0.481594    0.141499
O      5.950351    1.536186   -0.025825
C      5.785747    2.923453   -0.301430
O      4.553380   -2.970811    0.858698
O     -0.703962   -2.509280    0.812432
C     -0.703517   -3.899918    1.116343
O     -4.421374   -0.475145   -1.492577
C     -4.282760   -1.733834   -2.144012
H     -6.461919    3.350274   -0.046950
H     -4.785818    4.004167   -0.169248
H     -5.330324    3.146276    1.342268
H     -1.887202   -1.344375   -1.102760
H     -0.667165    2.010800    1.290896
H     -2.877962    3.010841    1.045371
H      6.236809   -1.011248    0.480202
H      3.278347    2.049015   -0.148370
H      5.243435    3.060454   -1.260788
H      6.785090    3.396972   -0.387652
H      5.230119    3.413793    0.525668
H     -0.228245   -4.473146    0.292796
H     -1.752897   -4.244349    1.218568
H     -0.182018   -4.083088    2.079209
H     -4.036097   -2.522826   -1.402283
H     -3.490870   -1.676846   -2.920420
H     -5.242420   -1.995378   -2.634868
