34

C      5.826741   -0.021514   -0.638252
C      4.337409   -0.126736   -0.527578
C      3.693855    0.325335    0.559761
C      2.190599    0.241749    0.711843
C      1.444330    1.059828   -0.375638
C     -0.043211    1.077797   -0.119733
C     -0.836720    0.076689   -0.520349
C     -2.299646    0.067753   -0.272411
C     -2.998528   -1.136466    0.024548
C     -4.406328   -1.107365    0.133481
C     -5.102368    0.096183   -0.029120
C     -4.415249    1.275110   -0.301751
C     -3.027933    1.263113   -0.428732
O     -5.114441   -2.276199    0.417709
C     -2.304174   -2.427114    0.261697
O     -1.107526   -2.473930    0.650618
O      1.932200    2.378266   -0.431845
O      1.772802   -1.101346    0.734897
H      6.308844   -0.585881    0.187742
H      6.161655   -0.447247   -1.607190
H      6.135933    1.043921   -0.588256
H      3.785452   -0.574173   -1.348681
H      4.265700    0.772943    1.368765
H      1.938478    0.681024    1.702062
H      1.627361    0.600683   -1.372005
H     -0.461728    1.914409    0.427050
H     -0.396639   -0.767163   -1.037166
H     -6.181224    0.118086    0.058974
H     -4.961650    2.200504   -0.431607
H     -2.527128    2.188106   -0.685630
H     -6.124090   -2.279507    0.504932
H     -2.842599   -3.358925    0.147860
H      1.820068    2.782388    0.468858
H      1.909754   -1.480321   -0.172039
