48

C     -3.559732   -1.170051    0.836550
C     -2.151944   -0.905692    0.274550
C     -1.838228   -1.749160   -0.972225
C     -0.390566   -1.561679   -1.443008
C     -0.182083   -0.188644   -2.038693
C      0.534277    0.801197   -1.473168
C      1.295980    0.681560   -0.178465
C      2.650042   -0.004292   -0.397213
C      3.403205   -0.169985    0.931005
C      4.794696   -0.809097    0.737875
C      5.954321    0.200711    0.817088
C      5.965558    1.220432   -0.324562
O      6.036053    0.565531   -1.560984
C     -4.719957   -0.824895   -0.119155
C     -4.718129    0.619957   -0.658224
C     -4.780097    1.702496    0.430412
C     -6.044684    1.619728    1.228587
O     -6.036359    1.108798    2.379344
O     -7.239373    2.077286    0.687400
H     -3.680020   -0.598711    1.781278
H     -3.639652   -2.244775    1.109872
H     -1.419253   -1.161261    1.070749
H     -2.026546    0.174678    0.053566
H     -1.992805   -2.823413   -0.730735
H     -2.526195   -1.483504   -1.803256
H     -0.181483   -2.308269   -2.238485
H      0.306615   -1.784451   -0.610538
H     -0.700157    0.029921   -2.968238
H      0.558480    1.762660   -1.978252
H      0.692068    0.145875    0.583847
H      1.477460    1.706479    0.211904
H      3.251406    0.604790   -1.104081
H      2.499804   -1.005374   -0.855194
H      3.489270    0.811687    1.446841
H      2.798496   -0.831617    1.590084
H      4.849353   -1.381158   -0.214289
H      4.950001   -1.549771    1.552772
H      5.911265    0.740805    1.787967
H      6.913180   -0.361791    0.795938
H      6.855029    1.877904   -0.204138
H      5.058252    1.861168   -0.274988
H      6.012422    1.278130   -2.251172
H     -4.705958   -1.525123   -0.980976
H     -5.678028   -1.012917    0.411524
H     -5.592969    0.742144   -1.333841
H     -3.816581    0.785435   -1.284984
H     -3.895925    1.637245    1.099065
H     -4.740510    2.699018   -0.059125
