32

C      4.102874   -1.512455    0.109049
C      4.094539   -0.053928    0.577928
C      3.265389    0.878869   -0.334957
C      3.389447    2.327120    0.169905
C      1.842042    0.479115   -0.303789
C      0.681945    0.152314   -0.278305
C     -0.675493   -0.230918   -0.247633
C     -1.835595   -0.557606   -0.220678
C     -3.261094   -0.956724   -0.187210
C     -3.336625   -2.407607    0.305208
C     -4.061583   -0.048448    0.781337
C     -4.094434    1.427306    0.371306
O     -3.815923   -0.911536   -1.481607
O      3.757926    0.791865   -1.651368
H      3.075960   -1.934394    0.116463
H      4.526336   -1.592353   -0.914271
H      4.732213   -2.116710    0.795932
H      5.147858    0.302517    0.608022
H      3.699838   -0.016764    1.617872
H      4.447759    2.662215    0.120641
H      2.779509    3.014067   -0.456241
H      3.039928    2.409049    1.222313
H     -2.772814   -3.078949   -0.378779
H     -4.392935   -2.752137    0.330842
H     -2.908774   -2.503132    1.327332
H     -5.111230   -0.411053    0.844115
H     -3.624933   -0.117463    1.802697
H     -3.066640    1.833515    0.266825
H     -4.621725    2.013396    1.153307
H     -4.645014    1.557650   -0.583521
H     -3.575532   -0.043877   -1.901088
H      3.216780    1.397059   -2.225058
