34

C      3.427251    0.408206    1.251251
C      4.810328    0.412768    1.059832
C      5.366776   -0.008397   -0.152110
C      4.514058   -0.449636   -1.190487
C      3.127909   -0.451416   -0.990324
C      2.568027   -0.013130    0.220058
C      1.092523   -0.048662    0.374678
C      0.420343    0.681267    1.275198
C     -1.045545    0.623639    1.383298
O     -1.626929    1.353261    2.231457
O     -1.783601   -0.238196    0.561174
C     -3.210237   -0.306237    0.560773
C     -3.800235    0.910304   -0.184438
C     -5.307061    0.916408   -0.113910
O     -5.883316    1.516953    0.831019
O     -6.075686    0.231807   -1.052803
O     -3.368586    0.914319   -1.521404
C     -3.624880   -1.600985   -0.078856
O     -4.557021   -2.283758    0.424473
O     -3.001131   -2.033621   -1.245591
O      4.995184   -0.891584   -2.424684
O      6.757002    0.024462   -0.278773
H      3.044254    0.712807    2.215068
H      5.457319    0.740746    1.863866
H      2.483447   -0.791113   -1.792805
H      0.535821   -0.673413   -0.314538
H      0.940944    1.361378    1.935267
H     -3.572821   -0.304007    1.614244
H     -3.428171    1.833297    0.317565
H     -5.649260   -0.282638   -1.813851
H     -3.555895    1.820876   -1.881137
H     -3.280218   -2.897957   -1.693989
H      5.974514   -0.932428   -2.667266
H      7.254893   -0.255320   -1.111502
