39

C     -2.695662   -2.074528   -1.559892
C     -2.048842   -1.436335   -0.356421
C     -2.559655   -0.264921    0.087442
C     -2.018696    0.544041    1.241216
C     -1.543331    1.933107    0.788598
C     -0.652628    1.909413   -0.446397
C      0.611968    1.436378   -0.427642
C      1.245628    0.820325    0.797925
C      1.159180   -0.713102    0.947417
C      2.506258   -0.045637    0.619820
C      3.498657    0.017695    1.787182
C      3.131901   -0.234579   -0.776416
C      0.486896   -1.559089   -0.159973
C     -0.868245   -2.137967    0.296413
C     -1.178236    2.478351   -1.740101
H     -2.665992   -1.370529   -2.418709
H     -3.753169   -2.324335   -1.330362
H     -2.172418   -3.005332   -1.863131
H     -3.412209    0.162264   -0.435708
H     -2.841090    0.679426    1.975571
H     -1.212537    0.032793    1.792526
H     -1.006081    2.429697    1.624694
H     -2.442952    2.556034    0.594106
H      1.207861    1.538158   -1.328507
H      1.192935    1.388142    1.751476
H      1.083883   -1.082022    1.993622
H      2.991106    0.160717    2.765596
H      4.080279   -0.926874    1.830425
H      4.200244    0.863629    1.630667
H      2.401570   -0.348021   -1.598231
H      3.769026   -1.143490   -0.768995
H      3.774358    0.640505   -1.007720
H      0.355153   -1.015360   -1.117419
H      1.170599   -2.409000   -0.374610
H     -0.891364   -3.212118    0.010994
H     -0.976545   -2.150614    1.401625
H     -2.229312    2.821026   -1.643318
H     -1.143592    1.699319   -2.531216
H     -0.554946    3.342836   -2.052547
