21

C     -0.227703    1.721254    0.919985
C     -0.990070    0.590062    0.218428
C     -1.204832    0.892401   -1.270012
C     -0.320175   -0.762832    0.431566
N      0.878952   -1.018119   -0.006835
O      1.644656   -0.103869   -0.694484
C      2.943573   -0.450048   -1.143012
C     -1.033219   -1.836113    1.155901
O     -0.476804   -2.954022    1.330740
O     -2.317948   -1.629652    1.650963
H     -0.823274    2.658304    0.879579
H      0.752850    1.916386    0.440061
H     -0.061407    1.463653    1.987876
H     -2.001844    0.571487    0.676890
H     -1.732973    0.045747   -1.758524
H     -0.245171    1.069805   -1.796763
H     -1.832649    1.802099   -1.382696
H      3.581765   -0.718266   -0.275102
H      3.391766    0.416489   -1.670932
H      2.882976   -1.311002   -1.841282
H     -2.808469   -2.363762    2.147651
