31

C      2.341213   -2.016084    0.046154
N      1.532572   -0.857380    0.463376
C      2.085827    0.152154    1.116973
N      3.477640    0.117619    1.488240
N      1.323915    1.322385    1.482583
O      1.875767    2.289984    2.253640
C      0.099929   -0.880915    0.102860
C     -0.139496   -0.115052   -1.207890
C     -1.534862   -0.355828   -1.819433
C     -2.740297    0.249402   -1.053070
C     -3.085601   -0.534880    0.189509
O     -3.383303   -1.755239    0.098424
O     -3.106396    0.077207    1.438047
N     -2.549370    1.676887   -0.760284
H      2.718793   -2.559065    0.938738
H      3.189961   -1.681548   -0.588277
H      1.753645   -2.736233   -0.562178
H      4.093611   -0.709662    1.336945
H      3.921967    0.937489    1.956173
H      0.340548    1.472060    1.175731
H      2.269153    2.934033    1.610682
H     -0.244556   -1.930182   -0.028801
H     -0.518866   -0.489958    0.933696
H      0.609375   -0.468619   -1.950169
H      0.046777    0.969326   -1.073549
H     -1.528625    0.089762   -2.838438
H     -1.691280   -1.447152   -1.965977
H     -3.620416    0.158548   -1.729495
H     -3.450951    2.088406   -0.425133
H     -2.263557    2.185088   -1.628661
H     -1.823117    1.817445   -0.022002
