26

C     -4.676901    0.061920   -0.506667
C     -4.066758    1.317159   -0.460168
C     -2.674860    1.418478   -0.371757
C     -1.876710    0.259793   -0.328851
C     -2.504011   -1.000433   -0.376466
C     -3.896389   -1.095290   -0.464858
C     -0.402274    0.371420   -0.235170
N      0.370904   -0.747910   -0.193610
C      1.721130   -0.656275   -0.107897
C      2.506593   -1.813832   -0.065806
C      3.898444   -1.710306    0.022611
C      4.508264   -0.452258    0.069125
C      3.729823    0.709405    0.027501
C      2.329919    0.611526   -0.061378
C      1.488365    1.733292   -0.107238
O      1.964192    2.899666   -0.069759
O      0.172048    1.572270   -0.191257
H     -5.754416   -0.014037   -0.575078
H     -4.672806    2.213395   -0.492636
H     -2.225381    2.402958   -0.337115
H     -1.921954   -1.912784   -0.345606
H     -4.370538   -2.067647   -0.500959
H      2.042087   -2.791549   -0.101363
H      4.505372   -2.605873    0.055132
H      5.585879   -0.377561    0.137554
H      4.219979    1.674476    0.064610
