28

C      3.203232    1.165992   -0.542246
C      1.880494    0.916861   -0.187312
N      1.505821   -0.306766    0.300660
C      2.443240   -1.305893    0.405351
O      2.115905   -2.453043    0.817291
N      3.740269   -1.070944    0.061657
C      4.134202    0.142432   -0.404977
O      5.338684    0.339916   -0.717569
C      0.090866   -0.561867    0.646523
C     -0.702327   -1.045584   -0.560958
C     -2.086979   -0.555435   -0.245927
C     -1.810784    0.702347    0.583374
O     -0.524085    0.602616    1.158732
C     -2.849132    0.912559    1.694637
O     -4.132854    1.083282    1.157294
O     -2.795227   -0.257836   -1.421508
F     -0.231660   -0.472842   -1.734601
F     -0.668168   -2.426152   -0.667394
H      3.494956    2.137328   -0.922487
H      1.154569    1.710940   -0.313876
H      4.444435   -1.838841    0.153578
H      0.028020   -1.331020    1.449971
H     -2.622066   -1.330250    0.354588
H     -1.814477    1.595262   -0.081696
H     -2.570543    1.801572    2.305106
H     -2.857256    0.032634    2.372995
H     -4.158399    1.996084    0.767651
H     -3.750737   -0.183352   -1.165199
