35

C      4.685578    1.316409   -0.741181
C      3.746917    0.562669    0.137888
O      3.244885    1.130031    1.145985
O      3.473471   -0.781464   -0.138767
C      2.571983   -1.571778    0.633507
C      1.150906   -1.143218    0.382242
C      0.414197   -0.494524    1.381978
C     -0.908474   -0.078061    1.141399
C     -1.478816   -0.289876   -0.131479
C     -0.752162   -0.957168   -1.128952
C      0.564808   -1.375895   -0.867735
O     -1.370823   -1.174833   -2.370472
C     -0.755829   -1.829420   -3.475412
O     -2.787169    0.120868   -0.424921
C     -3.303006    1.386257   -0.121287
O     -2.538247    2.336344    0.199797
C     -4.763556    1.638219   -0.279507
O     -1.687644    0.519784    2.145332
C     -1.234855    0.795330    3.466861
H      5.704699    1.289887   -0.302804
H      4.354093    2.371925   -0.836788
H      4.710805    0.856187   -1.751134
H      2.837679   -1.505250    1.711469
H      2.686069   -2.635015    0.333798
H      0.873561   -0.326515    2.346687
H      1.143590   -1.878819   -1.631167
H     -0.482492   -2.869715   -3.199214
H     -1.472712   -1.863395   -4.321128
H      0.146961   -1.268543   -3.797307
H     -5.327958    0.693743   -0.132008
H     -5.106539    2.381386    0.471000
H     -4.963373    2.027200   -1.299439
H     -0.370402    1.491777    3.436755
H     -2.056225    1.274022    4.038241
H     -0.949921   -0.148546    3.977763
