45

C      7.198169   -1.978830    0.602022
O      7.194889   -0.560866    0.471808
C      6.039953    0.220214    0.307782
C      6.185020    1.608855    0.191864
C      5.057534    2.420737    0.021368
C      3.781627    1.856135   -0.028769
C      3.613387    0.464461    0.101225
C      4.750715   -0.346185    0.256018
C      2.280128   -0.185096    0.042636
C      1.129436    0.452559    0.301384
C     -0.175932   -0.225652    0.245304
O     -0.257421   -1.444249   -0.074533
O     -1.328319    0.504297    0.552558
C     -2.637361   -0.059213    0.513919
C     -3.641181    0.983472    1.030059
C     -5.069783    0.411260    0.933165
C     -5.338645   -0.145621   -0.477523
C     -4.187851   -1.097161   -0.884495
O     -2.945400   -0.415663   -0.822908
C     -4.384514   -1.616860   -2.316322
O     -3.307200   -2.431288   -2.693947
O     -6.562894   -0.836478   -0.467040
O     -6.027029    1.382237    1.277693
O     -3.338029    1.299455    2.364171
O      7.457519    2.175623    0.243206
H      6.765152   -2.446887   -0.307177
H      8.244046   -2.329608    0.717895
H      6.620410   -2.281178    1.500912
H      5.170130    3.492770   -0.080131
H      2.938918    2.512818   -0.193345
H      4.624329   -1.417293    0.344504
H      2.252662   -1.245196   -0.182610
H      1.128201    1.494456    0.589234
H     -2.651011   -0.955030    1.179763
H     -3.555085    1.894672    0.391153
H     -5.159254   -0.425525    1.662221
H     -5.373241    0.709802   -1.195691
H     -4.182113   -1.984841   -0.208194
H     -4.439716   -0.758957   -3.020278
H     -5.336562   -2.188613   -2.399066
H     -3.426574   -3.297196   -2.223003
H     -6.989565   -0.690260   -1.351366
H     -5.937980    2.135131    0.636310
H     -3.775994    2.168703    2.559461
H      7.596431    3.176088    0.161322
