45

C     -2.258655    3.716322    0.890743
C     -1.443089    2.714198    0.142721
O     -0.620467    3.107930   -0.728919
N     -1.638084    1.313481    0.382054
C     -0.919546    0.270099   -0.359940
C     -1.814032   -0.264069   -1.501524
C     -2.624748   -1.476708   -1.019415
C     -1.689733   -2.605670   -0.474157
O     -0.410946   -2.110923   -0.074176
C     -0.494027   -0.872409    0.613326
C      0.839499   -0.592043    1.369620
C      2.125768   -1.146055    0.684085
C      2.418478   -0.550686   -0.704146
O      2.506066    0.873249   -0.665748
C      3.654793    1.574320   -0.284251
O      4.727862    0.967062   -0.021694
C      3.596263    3.058008   -0.152935
O      3.237427   -0.935214    1.516530
O      0.968732    0.780469    1.650042
C     -2.350962   -3.338544    0.675845
O     -3.571095   -3.645144    0.600457
O     -1.618188   -3.771681    1.781357
O     -1.495137   -3.557408   -1.490690
O     -1.012271   -0.618843   -2.598494
H     -1.753872    4.703003    0.887122
H     -3.256404    3.813276    0.412962
H     -2.384446    3.389037    1.944605
H     -2.416516    1.030055    1.017718
H     -0.017592    0.715349   -0.821567
H     -2.520385    0.538425   -1.819265
H     -3.260983   -1.860486   -1.847636
H     -3.317150   -1.123124   -0.222015
H     -1.273321   -0.952047    1.407999
H      0.752653   -1.141606    2.337996
H      2.003427   -2.245003    0.540451
H      1.613228   -0.842667   -1.408394
H      3.359240   -0.982190   -1.111080
H      2.746645    3.458732   -0.745563
H      3.454918    3.328324    0.914498
H      4.538991    3.510692   -0.524827
H      3.166152   -1.580472    2.266997
H      1.574031    0.865657    2.432525
H     -0.622171   -3.614764    1.865381
H     -0.881195   -3.161915   -2.163026
H     -1.619156   -0.738021   -3.374001
