40

C     -0.248707   -1.746588    2.637338
C     -0.211465   -1.044188    1.248617
C     -1.542395   -1.440890    0.501729
C     -2.743689   -0.550366    0.899070
C     -2.519022    0.930435    0.505053
C     -1.033072    1.242912    0.494337
C     -0.508652    1.899666   -0.559583
C      0.932105    1.791045   -0.975236
C      1.247583    0.335034   -1.414376
C      1.952245   -0.501689   -0.292007
C      1.049561   -1.564118    0.404589
O      1.874594   -2.411515    1.170998
O      3.049701   -1.152763   -0.933200
C      3.253916   -0.664280   -2.202432
O      4.202665   -1.028769   -2.946142
C      2.219003    0.270752   -2.557952
C      2.057898    0.821447   -3.761646
C     -0.194829    0.503500    1.513481
O     -3.186027    1.765243    1.422774
O     -3.299175    2.949134    0.846405
H      0.618038   -1.437938    3.260615
H     -0.235072   -2.852655    2.524882
H     -1.165339   -1.483521    3.205392
H     -1.414339   -1.339686   -0.598085
H     -1.796446   -2.507925    0.687331
H     -2.919335   -0.632661    1.992801
H     -3.661065   -0.928839    0.397886
H     -2.949376    1.051784   -0.518866
H     -1.178899    2.392732   -1.259347
H      1.604353    2.155425   -0.170272
H      1.077113    2.490006   -1.825809
H      0.324724   -0.181846   -1.760940
H      2.414959    0.158532    0.468742
H      0.673276   -2.211004   -0.417395
H      2.388053   -1.842164    1.801992
H      1.194288    1.437263   -3.975752
H      2.784488    0.655332   -4.547179
H      0.815255    0.928964    1.640049
H     -0.670743    0.723838    2.494916
H     -4.256171    3.020358    0.597222
