16

C      1.968869    0.289451   -0.286442
C      0.681366   -0.104891   -0.956761
O      0.725292   -0.483538   -2.118410
C     -0.649747   -0.068806   -0.224729
C     -0.647194   -1.134483    0.891036
C     -0.873261    1.324253    0.326346
O     -0.660350    1.586736    1.540706
O     -1.269941    2.346007   -0.528234
O     -1.679656   -0.370259   -1.138954
H      1.802963    0.610279    0.762301
H      2.665998   -0.574435   -0.285636
H      2.433507    1.130181   -0.842813
H     -0.513689   -2.146385    0.451417
H     -1.611474   -1.119717    1.443206
H      0.172695   -0.957960    1.619394
H     -2.545380   -0.326432   -0.652427
