79

C      8.387468   -2.293556   -0.722955
C      7.208513   -1.530801   -0.120059
N      7.478528   -0.077973   -0.041520
C      6.546847    0.621832    0.869547
C      7.176968    0.745066    2.251293
C      7.688309    0.611511   -1.341527
C      6.625748    0.344705   -2.431999
C      5.229045    0.867511   -2.074478
C      4.276151    0.747607   -3.268570
N      2.949444    1.251754   -2.918796
C      2.026185    0.515593   -2.106234
N      0.798543    1.038940   -1.841984
C     -0.101150    0.363502   -1.081919
N     -1.321352    0.901554   -0.830998
C     -2.262779    0.259531   -0.082416
C     -1.967471   -1.014283    0.462869
C     -0.702977   -1.577321    0.225507
C      0.232993   -0.891719   -0.552843
C      1.497029   -1.415678   -0.835756
N      2.362630   -0.705873   -1.605231
C     -2.965652   -1.787415    1.236690
C     -4.218530   -2.083764    0.678405
C     -5.163349   -2.824355    1.394945
C     -4.845702   -3.276885    2.689294
C     -3.597145   -2.999126    3.257342
C     -2.654825   -2.255703    2.522525
O     -3.333914   -3.478565    4.549491
C     -2.110509   -3.276839    5.249070
O     -6.399401   -3.090124    0.786777
C     -7.449581   -3.837586    1.391034
N     -3.514471    0.913394    0.198001
C     -4.072256    1.949643   -0.625014
O     -3.519764    2.256861   -1.715216
N     -5.279422    2.612313   -0.205396
C     -5.964225    3.685353   -0.953754
C     -6.416005    3.169649   -2.334555
C     -7.214516    4.127929   -0.165160
C     -5.031724    4.902224   -1.114112
H      9.328405   -2.015422   -0.202639
H      8.486541   -2.076439   -1.806469
H      8.223284   -3.385687   -0.603513
H      7.056198   -1.934402    0.905467
H      6.277344   -1.742060   -0.686681
H      5.579332    0.079360    0.962096
H      6.312758    1.649968    0.516080
H      6.487083    1.289087    2.930472
H      8.131654    1.308482    2.183899
H      7.377631   -0.260240    2.677192
H      7.786012    1.708816   -1.185590
H      8.675089    0.301232   -1.745432
H      6.578136   -0.734420   -2.686002
H      6.968320    0.865173   -3.353424
H      5.294457    1.934971   -1.769972
H      4.819292    0.277123   -1.231964
H      4.199780   -0.310529   -3.602423
H      4.676351    1.345653   -4.116610
H      2.636999    2.159011   -3.332616
H     -0.460061   -2.554894    0.626804
H      1.795806   -2.382865   -0.451775
H     -4.460719   -1.743375   -0.321380
H     -5.560362   -3.849453    3.264964
H     -1.685343   -2.027729    2.945338
H     -2.179702   -3.758688    6.246092
H     -1.270193   -3.737905    4.688072
H     -1.926121   -2.190764    5.391102
H     -7.103153   -4.868387    1.616435
H     -8.304526   -3.896135    0.686418
H     -7.788424   -3.335213    2.321695
H     -4.049855    0.634688    1.049989
H     -5.689569    2.299374    0.704601
H     -7.023674    3.937931   -2.859542
H     -7.032310    2.252601   -2.218536
H     -5.550441    2.928690   -2.983890
H     -6.926175    4.505152    0.839947
H     -7.757336    4.937613   -0.699666
H     -7.910609    3.272216   -0.028270
H     -4.653668    5.229757   -0.121708
H     -4.161294    4.666776   -1.759446
H     -5.574617    5.752025   -1.581410
