43

C     -4.918724    0.792083    0.045542
C     -4.580995   -0.607294   -0.503765
C     -5.532201   -0.926022   -1.667339
C     -4.757777   -1.677578    0.590406
O     -3.244809   -0.635658   -1.027996
C     -2.064873   -0.396740   -0.307779
O     -2.097363   -0.132703    0.924872
N     -0.809931   -0.455826   -0.995337
C      0.466042   -0.199230   -0.319725
C      1.641907   -0.663676   -1.200221
C      2.959851   -0.552435   -0.474346
C      3.771740    0.579071   -0.645051
C      4.972143    0.700820    0.060379
C      5.380369   -0.304829    0.953766
C      4.559362   -1.434050    1.128124
C      3.358400   -1.553887    0.423137
N      6.616567   -0.175887    1.679668
O      6.983450   -1.064946    2.475929
O      7.416438    0.930699    1.507535
C      0.589007    1.264515    0.001511
O      0.315668    2.129335   -0.876151
O      1.055355    1.651557    1.260941
C      1.262676    3.012958    1.615079
H     -4.715817    1.565663   -0.725757
H     -4.316008    1.030503    0.945389
H     -5.990801    0.850592    0.333114
H     -5.301157   -1.927323   -2.090647
H     -6.591535   -0.920484   -1.330162
H     -5.415171   -0.174389   -2.477597
H     -4.156335   -1.439557    1.491179
H     -5.822068   -1.743407    0.904141
H     -4.438433   -2.671268    0.209506
H     -0.822571   -0.685365   -2.015267
H      0.488864   -0.784574    0.626797
H      1.480182   -1.724386   -1.493524
H      1.669146   -0.071680   -2.142169
H      3.471669    1.371489   -1.319638
H      5.578602    1.584277   -0.091003
H      4.843561   -2.222831    1.812731
H      2.735928   -2.426283    0.579862
H      0.307270    3.574562    1.542702
H      1.633183    3.065393    2.659268
H      2.019188    3.468793    0.941586
