34

C     -3.506289   -1.342681   -0.600477
C     -3.228210    0.126070   -0.246060
C     -3.583649    1.025209   -1.437280
C     -1.755711    0.350861    0.164905
C     -1.393219   -0.349014    1.485856
C     -0.027281    0.091557    2.040413
C      1.164971   -0.349812    1.164986
C      1.711515    0.802311    0.303460
C      2.756633    0.331947   -0.720145
C      4.068457   -0.117391   -0.061727
C      5.109284   -0.419308   -1.097619
O      4.957463   -1.347986   -1.875447
H     -2.812683   -1.693534   -1.394568
H     -4.550333   -1.459846   -0.961827
H     -3.392205   -1.989493    0.293616
H     -3.889073    0.414251    0.601475
H     -2.950035    0.779084   -2.316633
H     -4.651095    0.892402   -1.715323
H     -3.430607    2.093240   -1.172440
H     -1.584435    1.443122    0.289025
H     -1.087916   -0.013029   -0.646068
H     -1.388568   -1.451210    1.346758
H     -2.165378   -0.107789    2.248744
H     -0.020348    1.191383    2.207476
H      0.086852   -0.376895    3.042704
H      1.976718   -0.699649    1.838344
H      0.880356   -1.210538    0.520758
H      0.879312    1.277160   -0.256173
H      2.154380    1.583027    0.960144
H      2.972277    1.181282   -1.405640
H      2.335155   -0.495823   -1.332089
H      3.903328   -1.029341    0.549807
H      4.449000    0.688862    0.601965
H      6.011336    0.181571   -1.150711
