36

C      1.573775   -1.785148    0.400633
C      2.369080   -0.729757   -0.337297
C      2.234952   -0.540216   -1.665532
C      1.299339   -1.295235   -2.522305
C     -0.035414   -1.185600   -2.459810
C     -0.738589   -0.257948   -1.538318
C     -2.079070   -0.153631   -1.448154
C     -2.636011    0.767644   -0.424662
C     -3.844423    0.608393    0.128961
C     -4.342091    1.551712    1.179366
O     -4.507214    2.828165    0.627573
C     -2.996748   -0.951594   -2.346447
C      3.314611    0.147117    0.401231
C      3.311609    0.271510    1.735043
C      4.266489    1.184213    2.449040
O      5.035504    0.450854    3.362481
H      2.207236   -2.271164    1.171663
H      1.223684   -2.595311   -0.271567
H      0.696351   -1.316363    0.893147
H      2.872974    0.175303   -2.170572
H      1.729371   -1.933600   -3.283764
H     -0.606416   -1.802818   -3.139470
H     -0.135506    0.361361   -0.885850
H     -2.010113    1.580434   -0.071073
H     -4.472940   -0.231229   -0.138511
H     -3.615870    1.587135    2.022239
H     -5.318633    1.184124    1.565167
H     -4.793653    3.415232    1.374885
H     -4.032486   -0.555344   -2.330500
H     -2.664822   -0.880901   -3.403406
H     -3.005804   -2.014406   -2.026622
H      4.020294    0.737449   -0.173476
H      2.592035   -0.264541    2.340304
H      4.953269    1.688671    1.736221
H      3.690441    1.977224    2.976093
H      4.444789    0.248262    4.134543
