49

C     -3.153334    1.058935   -1.694640
C     -2.629054    0.455873   -0.379961
C     -3.622373   -0.580700    0.246653
C     -3.120720   -1.119790    1.626487
C     -1.584239   -1.339860    1.711986
C     -0.813677   -0.223098    0.964678
C     -1.248781   -0.236062   -0.497906
C     -0.126572    0.531129   -1.239999
C      1.173131    0.313190   -0.396717
C      0.713694   -0.371841    0.945363
C      1.404672    0.170997    2.236350
C      2.878513    0.602496    2.019280
C      3.160996    1.147738    0.594695
C      1.867587    1.644078   -0.049854
C      3.526494    0.010371   -0.310094
C      4.766885   -0.473905   -0.444244
C      2.337909   -0.464667   -1.084562
O      2.189860   -1.859318   -0.997711
C     -0.037778    0.158122   -2.705306
O     -0.020995    1.071604   -3.572000
O      0.048855   -1.167513   -3.128273
O     -1.247061    1.059053    1.429896
C     -2.310763    1.481732    0.655129
O     -2.954829    2.542542    0.868753
O     -3.813074   -1.669045   -0.623540
H     -2.519902    1.905137   -2.032784
H     -4.186318    1.442173   -1.554120
H     -3.165367    0.287533   -2.493258
H     -4.602504   -0.077537    0.429257
H     -3.644023   -2.068477    1.874818
H     -3.408120   -0.388365    2.413761
H     -1.274865   -1.355465    2.779172
H     -1.334325   -2.331447    1.274382
H     -1.332267   -1.274770   -0.885257
H     -0.370949    1.616472   -1.201010
H      0.926945   -1.460350    0.911269
H      1.359198   -0.601052    3.034857
H      0.856183    1.053730    2.627579
H      3.123715    1.396095    2.758220
H      3.551100   -0.254381    2.246447
H      3.940802    1.940771    0.598751
H      2.095713    2.222329   -0.974951
H      1.268547    2.295718    0.624134
H      5.583709   -0.062351    0.140112
H      4.974813   -1.281152   -1.138806
H      2.469951   -0.141905   -2.143473
H      2.749397   -2.254321   -1.715994
H      0.074441   -1.942729   -2.479398
H     -4.521220   -1.407723   -1.268171
