50

C     -3.761028    0.312075    1.624347
C     -2.610314    0.516560    0.602124
C     -1.916967   -0.888578    0.276825
C     -1.271540   -1.605118    1.496264
C      0.176715   -1.205334    1.840115
C      0.915906   -0.377301    0.774600
C      2.355293   -0.111449    1.056666
O      1.363001    0.863318    1.284605
C      3.303352    0.284145   -0.097059
C      2.537644    0.765133   -1.317218
O      3.107592    1.483907   -2.182483
C      1.172296    0.296664   -1.592507
C      0.388365   -0.251640   -0.643090
C     -0.956350   -0.913441   -0.979736
C     -1.708747   -0.278453   -2.187143
C     -2.254820    1.058109   -1.822332
O     -1.884994    2.068741   -2.401826
C     -3.245911    1.107090   -0.699353
O     -3.688927    2.431474   -0.510770
C     -0.636126   -2.374793   -1.386301
C      4.103116   -0.975745   -0.477596
C      4.234947    1.373930    0.425125
C      5.311502    1.811712   -0.242057
C     -1.632509    1.551896    1.206415
H     -4.444136   -0.501183    1.298285
H     -4.364324    1.237512    1.738254
H     -3.378909    0.071816    2.636857
H     -2.771008   -1.547870   -0.004953
H     -1.283295   -2.698847    1.295346
H     -1.896882   -1.504465    2.403157
H      0.761676   -2.134401    2.018162
H      0.176287   -0.657732    2.808644
H      2.782374   -0.478831    2.015586
H      0.842268    0.395140   -2.612556
H     -2.577374   -0.921445   -2.453225
H     -1.105910   -0.230062   -3.115362
H     -4.103429    0.460922   -1.009765
H     -4.663823    2.396317   -0.327289
H     -0.003918   -2.884195   -0.628693
H     -1.567535   -2.966219   -1.519279
H     -0.074010   -2.396959   -2.345427
H      3.412986   -1.803926   -0.751207
H      4.731716   -1.312616    0.375343
H      4.765044   -0.786817   -1.349148
H      4.030927    1.826145    1.392898
H      5.582160    1.410945   -1.212715
H      5.934763    2.588749    0.188469
H     -2.171142    2.477928    1.501174
H     -0.858530    1.851572    0.472913
H     -1.157471    1.165622    2.128352
