23

C     -1.887201   -0.539408    0.922791
C     -1.360126   -0.146795   -0.472865
C     -1.615553    1.352834   -0.708323
C      0.150378   -0.494747   -0.653373
C      1.136852    0.174176    0.336454
C      2.548195    0.064605   -0.181111
O      3.068454   -1.066525   -0.380592
O      3.281605    1.218592   -0.439450
N      1.038178   -0.432862    1.666274
O     -2.096975   -0.846242   -1.448994
H     -1.614874   -1.589761    1.161589
H     -1.479624    0.127250    1.711377
H     -2.994892   -0.454181    0.948240
H     -1.199555    1.976147    0.109981
H     -2.708633    1.548895   -0.754113
H     -1.168154    1.677753   -1.672035
H      0.437772   -0.207890   -1.690223
H      0.280232   -1.598341   -0.592920
H      0.900109    1.254201    0.423201
H      4.231334    1.163516   -0.787525
H      1.347611   -1.431612    1.622943
H      1.687164    0.069895    2.315014
H     -1.982293   -1.819498   -1.284819
