41

C      0.180877   -0.412446   -2.338015
C      0.752169   -0.594017   -0.918884
C     -0.155502   -1.329637    0.053318
C     -0.791176   -0.211182    0.892827
O      0.039522    0.928925    0.830994
C      0.973018    0.760761   -0.220193
C      2.381188    0.870382    0.324706
C      3.374349    1.526330   -0.422912
C      4.686996    1.597468    0.052976
C      5.026082    1.002444    1.275127
C      4.047082    0.333420    2.015756
C      2.733613    0.260523    1.542711
O      6.330671    1.067165    1.759186
C     -2.216511    0.152866    0.508540
C     -2.494144    1.181347   -0.412188
C     -3.813502    1.480369   -0.764346
C     -4.872749    0.762006   -0.203170
C     -4.607903   -0.259336    0.717393
C     -3.289972   -0.560799    1.071844
O     -6.181992    1.070717   -0.565139
C     -1.122735   -2.359845   -0.559450
H      0.870246    0.214058   -2.943218
H      0.092474   -1.395118   -2.846951
H     -0.814040    0.074371   -2.318340
H      1.708118   -1.157741   -1.025832
H      0.510751   -1.904947    0.737481
H     -0.805486   -0.546193    1.954268
H      0.811432    1.598881   -0.934838
H      3.133430    1.981081   -1.375848
H      5.440272    2.110977   -0.530848
H      4.305430   -0.134553    2.957197
H      1.994160   -0.272708    2.126286
H      7.062894    1.543540    1.245566
H     -1.696044    1.759654   -0.856874
H     -4.012949    2.273056   -1.474241
H     -5.421880   -0.820868    1.157909
H     -3.105113   -1.356369    1.783007
H     -6.971335    0.568467   -0.175817
H     -1.858964   -1.883524   -1.239940
H     -1.674081   -2.883357    0.249582
H     -0.548692   -3.120512   -1.129631
