40

C     -3.921175    3.163360    0.130076
O     -3.157523    1.973460   -0.039201
C     -3.688378    0.672206   -0.036813
C     -2.820322   -0.431466   -0.216860
C     -3.359451   -1.732783   -0.222244
C     -4.729193   -1.938511   -0.054512
C     -5.586798   -0.850643    0.123526
C     -5.069859    0.446163    0.133212
O     -6.955787   -1.046567    0.292623
C     -1.357111   -0.228776   -0.389790
C     -0.431606   -1.187077   -0.815959
C      0.774692   -0.527414   -0.816019
C      0.531965    0.752294   -0.404395
O     -0.742242    0.918905   -0.153553
C      1.551997    1.692034   -0.292597
C      2.858772    1.286112   -0.619079
C      3.117683   -0.041308   -1.050919
C      2.053458   -0.965991   -1.149097
C      4.523720   -0.475788   -1.376572
C      5.137709   -1.331810   -0.257386
C      5.363358   -0.557082    1.046788
O      6.329036    0.444693    0.868284
H     -4.426290    3.155708    1.118977
H     -3.241367    4.038708    0.086015
H     -4.671081    3.255104   -0.683764
H     -2.725627   -2.600269   -0.342103
H     -5.122809   -2.947107   -0.059380
H     -5.754987    1.271292    0.271946
H     -7.362461   -1.974764    0.290707
H     -0.606430   -2.215575   -1.100630
H      1.346602    2.702268    0.036445
H      3.667297    2.000941   -0.534728
H      2.221278   -1.986649   -1.470264
H      5.171287    0.403793   -1.582787
H      4.503907   -1.077055   -2.311468
H      4.478734   -2.203594   -0.052443
H      6.113892   -1.731601   -0.608295
H      5.737030   -1.265664    1.815789
H      4.405709   -0.135674    1.430100
H      5.842369    1.276130    0.630478
