47

C      1.910190   -3.092480    3.460319
O      1.032937   -2.259887    2.709988
C      1.459744   -1.292987    1.788557
C      2.820334   -1.075101    1.474637
C      3.197199   -0.094038    0.526896
C      2.191901    0.663390   -0.118747
C      0.857132    0.449020    0.230140
C      0.509643   -0.508652    1.138982
O     -0.857628   -0.594100    1.288324
C     -1.513139    0.358469    0.449402
C     -0.371822    1.095325   -0.326143
C     -0.397343    2.611809   -0.063753
O      0.587541    3.267641   -0.815838
C     -2.473533   -0.329138   -0.493403
C     -3.682200    0.296916   -0.839386
C     -4.568364   -0.308540   -1.752236
C     -4.228038   -1.542198   -2.324862
C     -3.014749   -2.159502   -1.995631
C     -2.139164   -1.554368   -1.092805
O     -5.101765   -2.147327   -3.226609
O     -5.788091    0.283856   -2.115821
C     -6.256312    1.534156   -1.620613
C      4.637589    0.073677    0.214227
C      5.155156    1.185453   -0.325099
C      6.592586    1.316029   -0.609786
O      7.030656    2.388114   -1.105505
O      7.472866    0.271319   -0.339781
H      2.579608   -2.470636    4.091352
H      2.510686   -3.728726    2.776264
H      1.308857   -3.750237    4.120717
H      3.588844   -1.662837    1.959898
H      2.428223    1.380030   -0.891970
H     -2.070535    1.059736    1.110488
H     -0.426118    0.898696   -1.420644
H     -1.401360    3.020759   -0.320530
H     -0.217291    2.814463    1.014307
H      0.264311    3.284928   -1.754337
H     -3.922969    1.254597   -0.397572
H     -2.746708   -3.107503   -2.444445
H     -1.198865   -2.040287   -0.865183
H     -4.885163   -3.037862   -3.659089
H     -6.373554    1.488367   -0.517200
H     -5.548545    2.344039   -1.897710
H     -7.244217    1.756179   -2.073534
H      5.303055   -0.739267    0.480969
H      4.526053    2.037213   -0.543850
H      8.462364    0.361495   -0.537034
