42

C      6.117343    0.234967    0.358014
O      5.443782   -0.470593   -0.679334
C      4.048951   -0.589835   -0.784210
C      3.520497   -1.313683   -1.861002
C      2.134560   -1.447482   -2.004194
C      1.269719   -0.866555   -1.075382
C      1.779160   -0.151651    0.023082
C      3.172471   -0.005914    0.151653
C      0.863323    0.524764    1.027091
C      0.398691    1.915134    0.508367
O     -0.706210    1.787062   -0.393156
C     -1.705118    0.828653   -0.205895
C     -1.485049   -0.221865    0.694439
O     -0.253242   -0.316272    1.350708
C     -2.482717   -1.174307    0.922760
C     -3.697588   -1.089705    0.226803
C     -4.718056   -2.025767    0.419295
C     -5.905653   -1.901249   -0.300987
C     -6.045241   -0.839270   -1.201225
O     -7.109734   -0.710631   -1.860572
O     -5.058656    0.038381   -1.366230
C     -3.909712   -0.042809   -0.699608
C     -2.908272    0.911072   -0.913018
C      0.023056    2.862458    1.658462
O     -1.027631    2.332222    2.418806
O      4.382076   -1.895660   -2.789466
H      7.211894    0.163928    0.192990
H      5.824700    1.306134    0.343691
H      5.876770   -0.214814    1.344452
H      1.725105   -2.000052   -2.840361
H      0.206392   -0.980455   -1.224168
H      3.566882    0.565975    0.980890
H      1.438699    0.668210    1.968374
H      1.236020    2.399406   -0.041330
H     -2.303662   -1.978725    1.626179
H     -4.598011   -2.844684    1.118376
H     -6.704735   -2.619026   -0.162182
H     -3.067846    1.719126   -1.615920
H      0.911730    3.029203    2.307921
H     -0.284152    3.843464    1.231759
H     -1.212175    2.995194    3.133687
H      4.031638   -2.424348   -3.579791
