46

C     -4.663713   -2.929008    2.554258
O     -4.966510   -1.825137    1.707191
C     -4.005647   -1.018706    1.076500
C     -2.625400   -1.239322    1.233112
C     -1.691338   -0.410413    0.595609
C     -2.147655    0.633144   -0.226390
C     -3.525255    0.865286   -0.394269
C     -4.449338    0.035035    0.265450
O     -5.822290    0.242048    0.121789
O     -4.008575    1.903463   -1.207209
C     -3.186836    2.810274   -1.935469
C     -0.212280   -0.694258    0.751303
C      0.300212   -1.793567   -0.217873
O      1.720526   -1.918679   -0.073298
C      2.538253   -0.795022    0.094855
C      1.947877    0.438059    0.410638
O      0.564107    0.499824    0.601109
C      2.735584    1.586295    0.532424
C      4.125969    1.495170    0.369244
C      4.951819    2.616601    0.491841
C      6.329023    2.473802    0.325852
C      6.850550    1.207281    0.040246
O      8.091128    1.058781   -0.112547
O      6.043048    0.155508   -0.071689
C      4.723910    0.246683    0.078751
C      3.924526   -0.894586   -0.054408
C     -0.037352   -1.497889   -1.691363
O      0.507162   -2.486242   -2.524043
H     -5.611003   -3.380923    2.913046
H     -4.094360   -3.698012    1.990588
H     -4.078094   -2.586461    3.433426
H     -2.268305   -2.055111    1.847510
H     -1.426926    1.253730   -0.740521
H     -6.201023    0.986403   -0.451258
H     -2.562484    2.256089   -2.667864
H     -2.541059    3.384937   -1.238348
H     -3.833978    3.521928   -2.487769
H     -0.038796   -1.063547    1.787124
H     -0.166183   -2.764650    0.057521
H      2.266837    2.535035    0.765144
H      4.536700    3.592275    0.714324
H      6.980862    3.333791    0.418215
H      4.375787   -1.850733   -0.288156
H     -1.138431   -1.505679   -1.831331
H      0.335926   -0.489998   -1.985902
H      1.453027   -2.233497   -2.688839
