22

C      2.555602   -0.034479    1.333130
C      1.233968   -0.012663    0.624308
C      1.129883    0.260743   -0.753641
N     -0.100614    0.264290   -1.332004
C     -1.233968    0.012664   -0.624308
C     -1.129883   -0.260743    0.753641
N      0.100615   -0.264290    1.332004
C     -2.333995   -0.547628    1.600654
C     -2.555601    0.034478   -1.333130
C      2.333995    0.547630   -1.600654
H      2.416081   -0.268825    2.409903
H      3.211715   -0.811088    0.887499
H      3.045943    0.958002    1.251038
H     -2.033621   -0.735815    2.653358
H     -2.859323   -1.448220    1.219659
H     -3.025082    0.320869    1.583207
H     -2.416082    0.268833   -2.409902
H     -3.211720    0.811078   -0.887493
H     -3.045937   -0.958007   -1.251046
H      2.033622    0.735804   -2.653360
H      2.859314    1.448230   -1.219666
H      3.025090   -0.320861   -1.583198
