48

C     -5.628087   -0.559139   -2.067589
C     -5.302534   -0.950527   -0.645753
C     -4.127529   -0.615704   -0.072410
C     -3.053057    0.166956   -0.787701
C     -1.835815    0.345779    0.096738
C     -1.645612    1.564012    0.785299
C     -0.512279    1.730490    1.598931
C      0.421256    0.706493    1.750527
C      0.237916   -0.515989    1.073533
C     -0.901561   -0.707344    0.269408
O     -1.077427   -1.952554   -0.345981
C      1.219944   -1.614498    1.209060
O      0.856409   -2.686917    1.761180
C      2.606305   -1.511728    0.705198
C      3.031166   -0.494408   -0.059461
C      4.420079   -0.367529   -0.565135
C      5.283747   -1.473937   -0.699953
C      6.581442   -1.302229   -1.192160
C      7.032057   -0.029868   -1.564805
C      6.176832    1.068867   -1.448263
C      4.878579    0.901576   -0.957494
O      8.323563    0.151773   -2.054479
O      1.510097    0.927935    2.597245
O     -2.601064    2.585961    0.645676
C     -2.533401    3.855901    1.286455
C     -6.304405   -1.734314    0.161625
H     -6.636604   -0.912640   -2.366740
H     -4.888246   -1.007883   -2.763135
H     -5.608822    0.546117   -2.170493
H     -3.943134   -0.923354    0.955304
H     -2.761182   -0.345122   -1.728172
H     -3.466328    1.149154   -1.098707
H     -0.347786    2.655791    2.134124
H     -1.895751   -2.206441   -0.882623
H      3.285125   -2.305424    0.984582
H      2.344366    0.307181   -0.302205
H      4.960313   -2.475183   -0.452493
H      7.233778   -2.160772   -1.290267
H      6.518177    2.054216   -1.739219
H      4.233010    1.767774   -0.875256
H      8.967185   -0.624892   -2.151684
H      2.200110    0.218179    2.806432
H     -2.539300    3.727957    2.389519
H     -3.419206    4.456146    0.994613
H     -1.617595    4.396703    0.967221
H     -6.593143   -1.155788    1.064515
H     -7.223828   -1.949841   -0.421398
H     -5.857760   -2.700938    0.477566
