50

C     -2.653917   -0.326500    1.839728
C     -2.515065   -0.546258    0.296229
C     -1.706230   -1.834038    0.023217
C     -0.221121   -1.669061    0.437377
C      0.438367   -0.409266   -0.203088
C     -0.406399    0.884156    0.061244
C     -1.839836    0.618295   -0.451355
C     -2.879317    1.734478   -0.425466
C     -4.226846    0.992329   -0.501650
C     -3.912334   -0.513226   -0.352248
O     -4.880287   -1.170866    0.424835
C      0.244392    2.160427   -0.547902
C      1.496534    1.903306   -1.395950
C      2.472265    0.958390   -0.726559
C      3.775279    1.062069   -1.035515
C      4.748297    0.025613   -0.660277
O      5.976688    0.244760   -0.833268
C      4.308281   -1.299816   -0.107444
C      2.774662   -1.481507   -0.193402
C      1.958046   -0.193523    0.140737
C      2.156152    0.178738    1.632997
O      4.754021   -1.417966    1.218448
H     -3.186542   -1.185510    2.300334
H     -1.683130   -0.252739    2.363174
H     -3.230942    0.590313    2.078250
H     -1.746342   -2.085981   -1.059800
H     -2.152173   -2.689523    0.575669
H      0.303270   -2.585005    0.096388
H     -0.132664   -1.638412    1.541294
H      0.398896   -0.603255   -1.301012
H     -0.470082    1.066644    1.150235
H     -1.737496    0.340692   -1.529864
H     -2.802692    2.321574    0.515483
H     -2.764716    2.418898   -1.293555
H     -4.726230    1.182754   -1.476591
H     -4.895324    1.342529    0.315388
H     -3.866071   -0.979062   -1.365891
H     -5.704365   -1.210093   -0.127144
H     -0.474664    2.727682   -1.173061
H      0.532735    2.843281    0.282134
H      1.194609    1.467917   -2.372975
H      1.979598    2.884055   -1.603108
H      4.125133    1.888680   -1.643233
H      4.786892   -2.095659   -0.724983
H      2.488037   -2.313484    0.484315
H      2.526573   -1.804267   -1.229445
H      1.597253    1.093148    1.911200
H      1.839482   -0.651539    2.297322
H      3.218057    0.409052    1.851532
H      4.721267   -2.383223    1.448949
