26

C     -3.697152   -1.215542   -0.791172
C     -3.095094   -0.463511   -1.803817
C     -2.231586    0.587221   -1.477987
C     -1.967774    0.893845   -0.132397
C     -2.572590    0.130625    0.879470
C     -3.435580   -0.919075    0.549372
C     -1.025180    2.008943    0.230337
O      0.165688    1.484468    0.814048
C      1.143797    0.801151    0.083177
O      1.025473    0.653398   -1.164580
N      2.284483    0.272709    0.765818
C      3.333700   -0.454790    0.053984
C      4.398491   -0.905396    1.002794
O      5.378736   -0.154758    1.254363
O      4.280285   -2.134542    1.643591
H     -4.364662   -2.028783   -1.045183
H     -3.296209   -0.695849   -2.841630
H     -1.768762    1.157958   -2.273433
H     -2.373818    0.348368    1.921665
H     -3.900180   -1.503735    1.332818
H     -1.520791    2.672008    0.970545
H     -0.770914    2.634825   -0.653242
H      2.350477    0.417132    1.799421
H      3.781524    0.203033   -0.722159
H      2.893681   -1.342917   -0.448300
H      4.983958   -2.446784    2.302038
