39

C      1.233708   -2.363571   -0.468808
C      1.454801   -0.898977   -0.914695
C      2.980048   -0.649052   -1.045137
C      3.540963   -0.030002    0.226362
C      2.897377    1.304249    0.411337
C      1.575830    1.467134    0.198829
C      0.675508    0.230106   -0.068790
C      0.141862   -0.271359    1.295572
C     -1.298265   -0.751482    1.080626
C     -1.677502   -0.426468   -0.372771
C     -0.637457    0.610513   -0.802931
C     -3.138891    0.004432   -0.526952
C     -3.517096    0.948516   -1.408494
C     -4.226477   -0.766675    0.180947
C      1.005757    2.864099    0.334915
H      0.164609   -2.614245   -0.359840
H      1.639977   -3.054085   -1.239129
H      1.763883   -2.582851    0.481051
H      1.080703   -0.872318   -1.961855
H      3.169463    0.042719   -1.897446
H      3.534092   -1.586043   -1.274653
H      3.327523   -0.678879    1.102828
H      4.641251    0.094013    0.134766
H      3.538158    2.156829    0.620114
H      0.110098    0.562471    2.033286
H      0.775102   -1.051879    1.760854
H     -1.967059   -0.222917    1.796693
H     -1.380448   -1.843268    1.271585
H     -1.544511   -1.332035   -1.001270
H     -0.521853    0.648390   -1.907621
H     -1.014171    1.598472   -0.472106
H     -4.567181    1.194442   -1.538652
H     -2.804988    1.482096   -2.027194
H     -3.818841   -1.637544    0.733984
H     -4.748676   -0.100463    0.899499
H     -4.961879   -1.153578   -0.556640
H      0.636894    3.216083   -0.650988
H      1.762439    3.596709    0.689443
H      0.175246    2.866419    1.071191
