50

C     -0.912228    3.255408    2.647420
C     -1.307348    1.835194    2.408920
O     -1.018817    0.956874    3.266127
N     -1.979352    1.475549    1.193566
C     -2.220167    0.081805    0.807509
C     -1.064747   -0.423573   -0.078089
C     -1.402351   -1.819637   -0.634422
C     -2.794415   -1.776491   -1.303121
O     -3.778284   -1.375349   -0.363488
C     -3.556166   -0.034995    0.044960
O     -4.598657    0.357538    0.895606
C     -3.173454   -3.150227   -1.874242
O     -4.364492   -3.061463   -2.609173
O     -1.401539   -2.771611    0.401745
O      0.123490   -0.503673    0.696459
C      1.102234    0.421047    0.258900
C      2.196175    0.530131    1.363892
C      3.477480   -0.237496    0.970164
C      3.971667    0.153075   -0.450936
C      2.805065    0.669744   -1.324810
O      1.614627   -0.017563   -0.994869
C      3.113420    0.464990   -2.781985
O      2.778648   -0.604971   -3.355784
O      3.819203    1.428680   -3.496939
O      4.951056    1.156952   -0.363916
O      3.273354   -1.626786    1.074898
O      2.506544    1.885567    1.575712
H     -0.109954    3.539374    1.934691
H     -1.789612    3.917930    2.494581
H     -0.538513    3.388398    3.684810
H     -2.146281    2.225062    0.483858
H     -2.290477   -0.557443    1.716609
H     -0.977594    0.262271   -0.958229
H     -0.643088   -2.090704   -1.406347
H     -2.762936   -1.068059   -2.165136
H     -3.544257    0.648454   -0.839380
H     -5.420524    0.380946    0.339348
H     -3.277385   -3.901355   -1.057800
H     -2.370546   -3.501519   -2.556925
H     -5.108016   -3.069583   -1.951239
H     -0.459749   -3.057308    0.531654
H      0.638290    1.429562    0.132877
H      1.800414    0.100992    2.315639
H      4.269670    0.016945    1.708336
H      4.417719   -0.752624   -0.929452
H      2.668310    1.766907   -1.170205
H      4.126384    2.288219   -3.057627
H      5.790075    0.716351   -0.066535
H      2.622321   -1.899420    0.377669
H      2.944804    1.947885    2.464702
