46

C      8.706620   -1.029368    0.219971
O      7.823111   -0.688536    1.283340
C      6.424005   -0.659309    1.174417
C      5.671831   -0.304462    2.303680
C      4.271940   -0.265373    2.234818
C      3.609943   -0.589134    1.041159
C      4.362854   -0.930161   -0.091634
C      5.758001   -0.970684   -0.026670
C      2.108893   -0.512664    0.959318
C      1.663799    0.887177    0.527584
N      0.205492    0.964996    0.469854
C     -0.557477    0.378690   -0.594462
O      0.030704   -0.208576   -1.544142
C     -2.029996    0.474918   -0.573739
C     -2.796195   -0.072872   -1.528138
C     -4.278518   -0.006985   -1.531561
C     -4.992630    1.008526   -0.863858
C     -6.401546    1.039035   -0.901072
C     -7.092267    0.053749   -1.619226
C     -6.385524   -0.945626   -2.298136
C     -4.990669   -0.972123   -2.259298
O     -8.485524    0.077504   -1.656639
O     -7.146851    2.030496   -0.243163
C     -6.582900    3.088997    0.524468
O      6.324980    0.011084    3.494029
H      8.507048   -2.065910   -0.124953
H      8.584203   -0.315529   -0.621847
H      9.752419   -0.971767    0.585113
H      3.700818    0.018536    3.110427
H      3.868558   -1.163718   -1.026711
H      6.309117   -1.242032   -0.916603
H      1.734732   -1.270173    0.237184
H      1.661938   -0.753673    1.948842
H      2.036936    1.631307    1.265303
H      2.093928    1.144833   -0.465125
H     -0.290112    1.515028    1.207561
H     -2.481985    0.985075    0.265472
H     -2.321879   -0.636989   -2.323136
H     -4.458875    1.786645   -0.339729
H     -6.917792   -1.704207   -2.857920
H     -4.465530   -1.755901   -2.791950
H     -9.014523   -0.619497   -2.167800
H     -5.936975    3.724346   -0.117636
H     -7.401508    3.715483    0.933999
H     -5.994326    2.675754    1.370705
H      5.811733    0.272129    4.327903
