17

C      3.040155    0.240837    0.426218
C      1.625599    0.019242    0.008578
C      1.200297   -0.891338   -0.937963
C     -0.171925   -0.765334   -0.986779
C     -0.493832    0.213678   -0.062381
O      0.598183    0.660491    0.515537
C     -1.843457    0.706192    0.254958
O     -1.982992    1.606226    1.125468
C     -3.051622    0.157269   -0.437350
H      3.110632    1.149909    1.059422
H      3.680931    0.374757   -0.470396
H      3.397588   -0.635226    1.006275
H      1.813722   -1.566205   -1.520238
H     -0.849758   -1.323275   -1.619206
H     -2.969462    0.333348   -1.530346
H     -3.973467    0.652622   -0.064857
H     -3.130593   -0.933191   -0.244868
