25

C      4.484232    0.435052    0.620195
O      3.485991   -0.359248   -0.008686
C      2.645952   -1.217233    0.706713
O      2.743586   -1.316965    1.960337
C      1.597573   -1.997664   -0.018712
N      0.283732   -1.395517    0.193125
C     -0.117572   -0.180479   -0.462474
O      0.718103    0.453028   -1.164190
C     -1.493068    0.353817   -0.315186
C     -2.577245   -0.494007   -0.016990
C     -3.868570    0.027299    0.112373
C     -4.093963    1.394644   -0.059444
C     -3.029114    2.243801   -0.367034
C     -1.736079    1.728230   -0.498665
H      5.017801    1.027659   -0.150905
H      4.013994    1.130712    1.347151
H      5.215473   -0.217024    1.143233
H      1.826528   -2.039521   -1.105406
H      1.592975   -3.040262    0.366352
H     -0.349927   -1.847858    0.888771
H     -2.439456   -1.561175    0.091790
H     -4.696850   -0.631491    0.339503
H     -5.094475    1.795236    0.040528
H     -3.205201    3.303004   -0.503636
H     -0.924421    2.405961   -0.732928
