19

C     -2.560230    0.282976    1.170648
C     -2.346931   -0.948115    0.541439
C     -1.123820   -1.223573   -0.079578
C     -0.102906   -0.257068   -0.071134
C     -0.324052    0.990743    0.568657
C     -1.551993    1.251464    1.185151
N      0.667941    1.933331    0.578385
C      1.876392    1.710124   -0.013646
C      2.082388    0.484464   -0.637475
N      3.200549    0.079418   -1.272684
O      2.922176   -1.127027   -1.690191
C      1.699155   -1.452531   -1.333820
O      1.159740   -2.558218   -1.600280
N      1.116528   -0.447444   -0.653193
H     -3.509896    0.486590    1.648315
H     -3.133322   -1.691887    0.535240
H     -0.992375   -2.183181   -0.555877
H     -1.726984    2.201389    1.674892
H      2.647641    2.468547    0.005150
