49

C     -3.196789   -2.376552   -0.528909
C     -2.329443   -1.705884    0.563631
C     -3.050958   -1.895099    1.913353
C     -0.982917   -2.411233    0.595848
C     -0.154161   -2.428647   -0.456924
C     -2.154372   -0.206035    0.302140
C     -1.246703    0.671983    0.936421
C     -1.543580    1.930666    0.439749
C     -0.980217    3.182452    0.703686
C     -1.514062    4.299981    0.037469
C     -2.589475    4.147897   -0.863780
C     -3.138767    2.876674   -1.106514
C     -2.585578    1.786689   -0.434943
N     -2.970163    0.504742   -0.521804
C     -0.159255    0.364364    1.940363
C      1.141609   -0.041092    1.289961
C      1.685321    0.695882    0.219887
N      2.866626    0.294045   -0.316572
C      3.538562   -0.767173    0.151372
C      4.800544   -1.029101   -0.578356
C      4.825599    0.084270   -1.639941
C      3.551751    0.923617   -1.427120
C      3.031865   -1.493914    1.229485
O      3.655989   -2.488511    1.687233
N      1.845729   -1.109023    1.781653
H     -2.800365   -2.160426   -1.544076
H     -4.248566   -2.020809   -0.481480
H     -3.213445   -3.479979   -0.391467
H     -3.222640   -2.974528    2.117366
H     -4.037268   -1.382138    1.902207
H     -2.463780   -1.480708    2.756156
H     -0.675184   -2.936764    1.496182
H     -0.401802   -1.909430   -1.377034
H      0.793684   -2.952745   -0.392556
H     -0.155146    3.298438    1.393586
H     -1.098158    5.282651    0.217878
H     -2.994382    5.014445   -1.370037
H     -3.965302    2.749825   -1.793702
H     -3.759632    0.151087   -1.105541
H      0.028426    1.253200    2.577541
H     -0.503522   -0.431915    2.626474
H      1.179455    1.563257   -0.181118
H      5.669218   -0.945215    0.109566
H      4.771534   -2.033697   -1.052515
H      4.831427   -0.356305   -2.660833
H      5.731232    0.717167   -1.515114
H      2.908185    0.901167   -2.333457
H      3.809733    1.973768   -1.168892
H      1.469143   -1.651346    2.592273
