17

C     -1.464615   -0.932388   -0.206137
C      0.013612   -0.930128   -0.538555
C      0.598799    0.126247    0.387026
N     -0.456026    1.118475    0.603907
C     -1.710790    0.365621    0.559420
C      1.861940    0.746354   -0.155192
O      2.180791    1.921285    0.171990
O      2.723758   -0.003484   -0.951369
H     -2.076552   -0.971090   -1.133900
H     -1.715066   -1.807877    0.432650
H      0.149107   -0.638194   -1.604405
H      0.474944   -1.926491   -0.362723
H      0.843961   -0.346663    1.364410
H     -0.467028    1.782698   -0.207772
H     -2.032334    0.137868    1.598983
H     -2.513153    0.964121    0.072016
H      3.588650    0.393645   -1.298363
