34

C      5.552598   -1.270499    0.066626
C      4.269843   -0.503567    0.082640
C      4.283670    0.890498    0.175513
C      3.073410    1.584446    0.188661
O      3.094483    2.842097    0.272678
C      1.857409    0.868715    0.108121
C      0.588387    1.497080    0.115321
C     -0.596607    0.719094    0.031495
C     -1.888864    1.307979    0.035448
C     -3.026318    0.481128   -0.050327
C     -2.910371   -0.905934   -0.139210
C     -1.636200   -1.490370   -0.143359
C     -0.485924   -0.693484   -0.059223
C      0.774014   -1.303642   -0.065462
C      1.935174   -0.539654    0.016790
O      3.114336   -1.155252    0.007995
O     -4.087158   -1.666231   -0.221641
C     -4.125134   -3.086523   -0.316926
O     -2.021951    2.704976    0.124524
C     -3.259847    3.409347    0.137621
O      0.510636    2.884991    0.205292
H      6.117362   -1.078062    1.003009
H      6.166587   -0.958001   -0.804100
H      5.349451   -2.359459   -0.011258
H      5.223374    1.427432    0.236680
H     -4.020058    0.907534   -0.049041
H     -1.533478   -2.565944   -0.211934
H      0.859856   -2.382453   -0.134708
H     -3.652438   -3.542189    0.578709
H     -3.603076   -3.421626   -1.238009
H     -5.182388   -3.418148   -0.367659
H     -3.866991    3.099103    1.014123
H     -3.817594    3.219717   -0.803703
H     -3.056192    4.496902    0.215316
