45

C      2.007228    0.710182    1.568960
C      1.898807    0.812817    0.042139
C      1.015438   -0.284179   -0.630179
C     -0.454931   -0.096523   -0.289911
C     -1.101925   -0.922141    0.653272
C     -0.280039   -1.896356    1.418656
O     -0.650331   -2.285415    2.558425
C      1.066883   -2.350153    0.930889
C      1.470874   -1.775220   -0.454745
C      0.826090   -2.636705   -1.570132
O      2.870567   -1.846440   -0.599749
C     -2.498455   -0.772368    0.873936
C     -3.202426    0.296993    0.264637
C     -2.517680    1.147609   -0.639651
C     -1.167582    0.929577   -0.922036
C     -3.195764    2.201850   -1.270708
C     -4.546368    2.423378   -1.014345
C     -5.234280    1.597211   -0.129110
C     -4.579816    0.536764    0.513883
O     -5.304197   -0.261653    1.399973
O     -3.207668   -1.693274    1.652253
O      3.203117    0.802973   -0.543155
C      4.101883    1.872657   -0.461825
O      3.766600    2.960446    0.080633
C      5.452551    1.741927   -1.078447
H      2.737685   -0.071232    1.857754
H      1.020326    0.509280    2.032024
H      2.376684    1.672021    1.981685
H      1.426748    1.794630   -0.189380
H      1.111685   -0.069674   -1.720057
H      1.822303   -2.076706    1.693002
H      1.072663   -3.461739    0.900049
H      1.148118   -3.696714   -1.484293
H     -0.282568   -2.607831   -1.512407
H      1.137590   -2.271616   -2.572157
H      3.148920   -2.790846   -0.465837
H     -0.658313    1.570431   -1.633712
H     -2.680315    2.854835   -1.965354
H     -5.062790    3.238611   -1.504652
H     -6.283973    1.783254    0.060051
H     -6.286658   -0.097437    1.586766
H     -2.866726   -2.617366    1.878823
H      5.739520    0.671094   -1.137638
H      5.435075    2.171604   -2.101458
H      6.205450    2.281444   -0.465948
