22

C      2.765716   -0.182308    0.646368
C      1.298727   -0.506178    0.479706
C      0.805654   -1.734288    0.958589
C     -0.535255   -2.068126    0.794005
C     -1.413178   -1.205116    0.142284
C     -0.958794    0.054046   -0.311991
C      0.399971    0.425861   -0.107764
C      0.892403    1.795279   -0.533652
C     -1.902402    0.970232   -0.988352
O     -1.621848    1.444626   -2.121899
O     -3.098498    1.321672   -0.369367
O     -2.724857   -1.643583   -0.058403
O      1.645039   -2.639289    1.601085
H      3.165242    0.293520   -0.273765
H      2.900259    0.503778    1.508601
H      3.376790   -1.091991    0.820929
H     -0.894333   -3.025100    1.152626
H      0.091521    2.559097   -0.457107
H      1.258340    1.750000   -1.580530
H      1.707739    2.160418    0.123308
H     -3.751812    1.950701   -0.820592
H     -3.406424   -1.133251   -0.604078
