47

C     -6.630537    0.783752   -1.409814
C     -5.631325    0.986871   -0.312662
O     -5.919426    1.777581    0.626340
C     -4.308761    0.305999   -0.328102
C     -3.780209   -0.177186    0.818649
C     -2.418588   -0.860834    0.876312
C     -1.346927    0.166729    1.215931
O     -1.658490    1.160959    1.928338
C      0.067439   -0.033307    0.776571
C      1.102422    0.845727    1.189076
C      2.422988    0.685327    0.679291
C      3.456491    1.639648    0.880849
C      4.758029    1.374374    0.430239
C      5.050302    0.198778   -0.276126
C      4.023798   -0.703462   -0.547701
C      2.716697   -0.463883   -0.098194
C      1.702562   -1.362384   -0.437613
C      0.379770   -1.134296   -0.051014
C     -0.668147   -2.143411   -0.465051
C     -2.104541   -1.563931   -0.480943
C     -2.252169   -0.558028   -1.652466
C     -3.572991    0.146177   -1.607950
O     -4.010919    0.671031   -2.666746
O     -3.025078   -2.619745   -0.653760
O      6.340346   -0.101282   -0.739547
C      7.481346    0.726756   -0.539253
O      3.201629    2.874604    1.475984
O      0.799384    1.825182    2.139752
O     -2.483946   -1.827030    1.903808
O     -4.482382   -0.037005    2.015091
H     -6.503287    1.570255   -2.182379
H     -6.502246   -0.217607   -1.872580
H     -7.660824    0.847592   -1.000282
H      5.532756    2.106019    0.615316
H      4.250680   -1.594781   -1.121854
H      1.937145   -2.237436   -1.034487
H     -0.427516   -2.536333   -1.478322
H     -0.615963   -3.009588    0.228680
H     -2.151570   -1.089925   -2.624030
H     -1.454440    0.213979   -1.615589
H     -2.812680   -3.079315   -1.508416
H      8.366032    0.242649   -1.001111
H      7.325265    1.715011   -1.021099
H      7.673360    0.856332    0.546851
H      3.929194    3.567665    1.608244
H      1.468621    2.177625    2.809732
H     -1.563292   -2.115855    2.137128
