39

C      3.152664    2.516534   -0.778973
C      1.929789    2.280455   -1.421161
C      1.490096    0.967538   -1.618726
C      2.261216   -0.116693   -1.160533
C      3.491888    0.129258   -0.541032
C      3.936771    1.443777   -0.342832
O      5.154121    1.693693    0.286525
O      1.846658   -1.445518   -1.334132
C      0.511405   -1.872053   -1.410419
C      0.163740   -2.876893   -2.331462
C     -1.161183   -3.318842   -2.421029
C     -2.150820   -2.778940   -1.594306
C     -1.809639   -1.793667   -0.656638
C     -0.478660   -1.348172   -0.555853
O     -0.152159   -0.392689    0.415199
C     -1.124614    0.163093    1.253098
C     -0.784091    1.146719    2.194869
C     -1.777559    1.683711    3.022647
C     -3.104085    1.247744    2.913959
C     -3.441983    0.267503    1.969738
C     -2.455281   -0.272544    1.140464
O     -2.782445   -1.248724    0.192456
O     -4.077161    1.794950    3.747130
O      0.528171    1.601651    2.318920
O     -3.462422   -3.236343   -1.714506
O      1.120624   -3.442380   -3.173952
O      1.145846    3.341946   -1.867374
H      3.496791    3.531318   -0.623398
H      0.552003    0.795158   -2.130499
H      4.095615   -0.702963   -0.201394
H      5.745228    0.938949    0.614892
H     -1.422977   -4.085878   -3.139278
H     -1.518773    2.442172    3.750894
H     -4.465849   -0.072729    1.879460
H     -5.045696    1.501728    3.693752
H      1.277162    1.245089    1.737242
H     -4.212044   -2.875595   -1.136488
H      2.092302   -3.156901   -3.154940
H      1.435348    4.304534   -1.739130
