48

C     -3.286333   -1.509248    1.184407
C     -2.635674   -0.579207    0.148718
C     -3.585778    0.582203   -0.268176
C     -2.990628    1.481789   -1.395972
C     -1.450435    1.730087   -1.280054
C     -0.716011    0.466885   -0.738026
C     -1.309955    0.066422    0.612145
C     -0.246673   -0.870627    1.237307
C      1.125711   -0.401509    0.656525
C      0.794093    0.610358   -0.499273
C      1.651047    0.433488   -1.791487
C      3.117323    0.010337   -1.508019
C      3.274917   -0.856459   -0.230405
C      1.959028   -1.564520    0.089367
C      3.427298    0.038361    0.963187
C      4.582486    0.580732    1.361376
C      2.121813    0.245417    1.654531
C     -0.334475   -0.894244    2.743684
O     -0.293100   -1.994934    3.355896
O     -0.423489    0.292994    3.466221
O     -1.036323   -0.649959   -1.575571
C     -2.164258   -1.277434   -1.080137
O     -2.735746   -2.244828   -1.648603
O     -1.163245    2.874962   -0.510052
H     -4.260960   -1.882441    0.804074
H     -3.463789   -0.957187    2.131737
H     -2.645657   -2.389497    1.398692
H     -3.804775    1.215200    0.619864
H     -4.556058    0.167737   -0.619856
H     -3.532580    2.451766   -1.423830
H     -3.188899    0.985351   -2.371457
H     -1.065851    1.926099   -2.304438
H     -1.478781    0.942298    1.275750
H     -0.431715   -1.907769    0.877837
H      0.978622    1.646025   -0.139514
H      1.644344    1.380191   -2.373966
H      1.203114   -0.341074   -2.449187
H      3.489467   -0.570786   -2.379620
H      3.757408    0.917882   -1.440126
H      4.115631   -1.579320   -0.316382
H      2.120382   -2.347358    0.865822
H      1.496727   -2.047464   -0.799808
H      5.498566    0.389662    0.811551
H      4.617396    1.219578    2.238150
H      2.164428   -0.298802    2.621770
H      1.915433    1.320782    1.844378
H     -0.468032    0.283423    4.478018
H     -1.786015    2.904641    0.260960
