47

C     -3.705434    0.906049    2.131704
C     -3.951604    0.057688    0.884482
C     -2.744850   -0.837128    0.506635
C     -3.048604   -1.678058   -0.776381
C     -1.951686   -1.455407   -1.847907
C     -0.586706   -1.905592   -1.279927
C     -0.318321   -1.188336    0.071912
C     -1.385767   -0.074846    0.302925
N     -1.503307    0.816943   -0.893661
C     -1.869894    0.061151   -2.131530
C     -0.387334    1.784476   -1.065984
C      0.960868    1.206785   -1.539396
C      1.635709    0.395225   -0.482580
C      1.089877   -0.682733    0.201662
N      2.016303   -1.255992    1.006492
C      3.146235   -0.551905    0.827674
C      2.958242    0.459663   -0.079403
C      4.001079    1.310444   -0.452379
C      5.264448    1.108380    0.141778
C      5.449884    0.067641    1.079470
C      4.382659   -0.778334    1.429190
O      6.339461    1.929568   -0.189774
H     -2.983723    1.720496    1.913798
H     -3.319844    0.276869    2.961849
H     -4.659716    1.372648    2.455152
H     -4.820932   -0.604422    1.091675
H     -4.251287    0.715690    0.042201
H     -2.620035   -1.546549    1.356635
H     -4.037288   -1.414570   -1.213286
H     -3.092712   -2.758356   -0.515431
H     -2.192474   -2.015723   -2.777392
H     -0.594487   -3.007054   -1.126261
H      0.211306   -1.690425   -2.023589
H     -0.438934   -1.947464    0.877981
H     -1.126691    0.506943    1.214926
H     -2.312352    1.449271   -0.694116
H     -2.862700    0.402546   -2.505848
H     -1.175200    0.246020   -2.974251
H     -0.224343    2.342807   -0.115954
H     -0.694666    2.549455   -1.815419
H      1.610129    2.067779   -1.801645
H      0.874161    0.603385   -2.461648
H      1.886354   -2.085398    1.628158
H      3.850946    2.102298   -1.173750
H      6.421743   -0.084445    1.531213
H      4.519782   -1.582187    2.140868
H      6.241705    2.684707   -0.858387
