34

C     -3.583149    0.297580   -0.728288
C     -2.062542    0.253010   -0.536607
C     -1.494455    1.675801   -0.317393
C     -0.160034    1.695881    0.460767
C      0.674546    0.409653    0.259815
C      2.055073    0.593399    0.961602
C      2.991459   -0.494068    0.529426
O      3.872407   -0.934724    1.314271
N      2.912535   -0.974503   -0.813331
C      1.901508   -0.447235   -1.681142
N      0.909159    0.237153   -1.187543
N      2.002326   -0.632132   -3.091955
C     -0.146260   -0.840344    0.788095
C     -1.685380   -0.670456    0.631090
C      0.148265   -1.239061    2.247784
H     -4.084841    0.675259    0.188592
H     -3.839884    0.964162   -1.579172
H     -3.970308   -0.718804   -0.954671
H     -1.629699   -0.171250   -1.469550
H     -1.345715    2.152145   -1.311389
H     -2.223770    2.305528    0.238933
H     -0.375411    1.820269    1.545483
H      0.420652    2.588627    0.139152
H      1.967145    0.635561    2.067204
H      2.509403    1.556945    0.643418
H      3.629515   -1.641106   -1.177526
H      1.275646   -0.239734   -3.731169
H      2.803269   -1.162885   -3.500043
H      0.146630   -1.720147    0.171619
H     -2.144634   -1.672802    0.480700
H     -2.123495   -0.244192    1.562500
H     -0.514820   -2.075418    2.557760
H      1.191053   -1.600541    2.359525
H     -0.026191   -0.381570    2.932044
