35

C     -0.775459   -1.677424    2.694717
C     -1.664926   -1.077802    1.631624
C     -3.049268   -1.003681    1.895550
N     -3.907250   -0.478599    0.986601
C     -3.455242   -0.016057   -0.199757
C     -4.300981    0.541771   -1.156375
O     -5.540157    0.627580   -0.940144
N     -3.781170    0.997383   -2.330060
C     -2.445131    0.923834   -2.599736
O     -2.001362    1.357694   -3.695338
N     -1.583294    0.385123   -1.696407
C     -2.019469   -0.094814   -0.501981
N     -1.162561   -0.641980    0.419248
C      0.282948   -0.702923    0.113994
C      0.962670    0.625777    0.478814
C      2.493097    0.562925    0.360598
C      2.969172    0.477591   -1.097226
C      4.492875    0.554198   -1.183506
O      4.889659    0.461347   -2.523104
H     -0.415240   -2.673085    2.361788
H      0.090519   -1.014520    2.896303
H     -1.316037   -1.811438    3.655918
H     -3.448546   -1.363078    2.835371
H     -4.422316    1.415652   -3.042685
H      0.773267   -1.544331    0.645644
H      0.434328   -0.921905   -0.964514
H      0.568316    1.440838   -0.166066
H      0.707544    0.884073    1.528883
H      2.909644    1.485588    0.821199
H      2.880092   -0.305431    0.937820
H      2.531182    1.314749   -1.683877
H      2.637940   -0.482134   -1.547723
H      4.843041    1.521370   -0.757534
H      4.941418   -0.283044   -0.602606
H      5.880697    0.514752   -2.520771
