35

C      3.603230   -1.143379   -0.111850
C      4.998034   -1.179240   -0.021723
C      5.709878   -0.028353    0.342138
C      5.019734    1.157077    0.614202
C      3.624954    1.195712    0.525134
C      2.904707    0.043735    0.164395
C      1.425279    0.080376    0.060441
C      0.668437    0.470191    1.104905
C     -0.807850    0.507098    0.981472
O     -1.503801    0.924551    1.946199
C     -1.465251    0.072411   -0.277026
C     -0.704966   -0.328048   -1.313237
C      0.766709   -0.325242   -1.206658
O      1.459184   -0.657760   -2.206198
O     -1.292591   -0.767060   -2.497103
C     -2.945453    0.076740   -0.375915
C     -3.718555   -0.621386    0.566710
C     -5.114056   -0.613240    0.480712
C     -5.752044    0.095343   -0.546174
C     -4.987420    0.795281   -1.484775
C     -3.591752    0.788558   -1.401402
O     -7.141677    0.110654   -0.641739
O      1.273527    0.826182    2.312539
O      7.099565   -0.052260    0.435120
H      3.067349   -2.043579   -0.386879
H      5.523994   -2.101438   -0.233540
H      5.565046    2.050067    0.892119
H      3.107480    2.125479    0.727328
H     -3.240678   -1.180369    1.361910
H     -5.697976   -1.158417    1.211305
H     -5.475370    1.347458   -2.277898
H     -3.015726    1.346519   -2.129391
H     -7.723516   -0.386112    0.022772
H      0.733087    1.117083    3.118030
H      7.628490   -0.895248    0.244077
