18

C     -2.548276    0.353667    0.490914
O     -2.689188    0.806144    1.616073
C     -1.254876    0.560646   -0.257507
C     -0.059001   -0.098976    0.478245
C      1.282070    0.129236   -0.260839
C      2.411983   -0.520035    0.488465
O      2.846332   -0.008769    1.554616
O      2.959420   -1.709837    0.025304
O      1.529209    1.506800   -0.380646
O     -0.297614   -1.470105    0.698466
O     -1.365605    0.101606   -1.583200
H     -3.369366   -0.186727    0.030373
H     -1.077752    1.657126   -0.299815
H      0.024652    0.386076    1.476755
H      1.217476   -0.327332   -1.276179
H      2.230172    1.613643   -1.076113
H     -0.190978   -1.943804   -0.166847
H     -1.648657   -0.849360   -1.558066
