21

C     -1.426399   -0.279696   -0.600504
C     -0.669099   -0.873817    0.603957
C      0.774675   -0.407822    0.658595
C      1.172846    0.694581   -0.011354
O      0.244203    1.455751   -0.735910
C     -1.162387    1.225041   -0.672211
O     -1.777636    1.761037   -1.811199
C      2.576167    1.155063   -0.013041
O      2.814511    2.389143   -0.081593
O      3.647456    0.263037    0.001572
O      1.674940   -1.088139    1.480125
O     -0.709031   -2.275805    0.513606
O     -2.805704   -0.505503   -0.464595
H     -1.052258   -0.746549   -1.543234
H     -1.172080   -0.525202    1.538160
H     -1.571568    1.713610    0.242568
H     -1.659988    2.744922   -1.753875
H      3.518866   -0.735837   -0.099688
H      1.392856   -1.884807    2.037651
H     -0.842334   -2.628320    1.432156
H     -2.968036   -1.450687   -0.721184
