41

C     -4.820779   -0.330934    1.112946
C     -3.638310   -0.630352    0.180389
C     -3.625289    0.275838   -1.061963
C     -2.370090    1.096653   -0.882759
C     -1.541506    0.246225    0.063745
O     -2.428393   -0.472270    0.891112
O     -0.749440   -0.656504   -0.687917
C      0.246601   -1.261973    0.117994
C      1.626078   -0.700109   -0.250360
C      2.758651   -1.454907    0.502040
C      3.931312   -0.506281    0.836815
C      4.115145    0.549843   -0.274607
C      2.778413    1.305455   -0.547123
O      1.662927    0.678939    0.068382
O      2.867243    2.613573   -0.046958
O      4.545133   -0.073552   -1.458881
O      3.672954    0.135008    2.061189
O      3.232953   -2.513583   -0.291122
O     -2.671099    2.324955   -0.270722
O     -3.517476   -0.496673   -2.230284
O     -4.688704    0.936537    1.701492
H     -4.836820   -1.090582    1.923170
H     -5.784057   -0.420766    0.558713
H     -3.720325   -1.696134   -0.130619
H     -4.522384    0.935337   -1.133951
H     -1.831140    1.269283   -1.844947
H     -0.904595    0.916731    0.687267
H      0.071222   -1.157360    1.216173
H      0.234475   -2.351449   -0.097814
H      1.749418   -0.844595   -1.351355
H      2.379635   -1.867838    1.467726
H      4.865329   -1.108934    0.936192
H      4.895661    1.278873    0.049353
H      2.588297    1.362808   -1.646876
H      3.437326    3.126155   -0.678448
H      5.499440   -0.315156   -1.328502
H      4.535353    0.512848    2.376663
H      2.554400   -3.236461   -0.242654
H     -3.025867    2.917467   -0.984037
H     -4.418297   -0.878206   -2.399957
H     -5.153396    1.582089    1.108209
