41

C     -2.529051   -0.136794   -1.553105
C     -2.331000    0.432890   -0.120382
C     -1.749450    1.857365   -0.171898
C     -0.280255    1.838559   -0.675117
C      0.638090    0.813718    0.074211
C     -0.030422   -0.592882    0.187722
C     -1.429292   -0.402973    0.798103
C     -2.280975   -1.605850    1.209332
C     -3.683701   -0.998417    1.390476
C     -3.631199    0.270174    0.594007
O     -4.569857    1.045289    0.494034
C      0.856114   -1.504319    1.046129
C      2.159927   -1.816072    0.309243
C      2.818524   -0.594024   -0.292928
C      4.091294   -0.715030   -0.715076
C      4.784007    0.406315   -1.357352
O      5.974420    0.282692   -1.750330
C      4.061897    1.666610   -1.528310
O      4.618049    2.661848   -2.064249
C      2.673516    1.754528   -1.055599
C      2.049286    0.687288   -0.505644
H     -1.605867   -0.109431   -2.162399
H     -2.884578   -1.188362   -1.528868
H     -3.292435    0.463836   -2.093296
H     -1.780278    2.317126    0.841172
H     -2.362339    2.497375   -0.843408
H      0.107346    2.867107   -0.522044
H     -0.252956    1.639466   -1.766912
H      0.768844    1.214498    1.105157
H     -0.118202   -1.060116   -0.816229
H     -1.273301    0.160168    1.753328
H     -1.919103   -2.058097    2.158168
H     -2.283951   -2.377584    0.409447
H     -4.469173   -1.680021    1.000155
H     -3.872230   -0.760923    2.459590
H      1.079637   -1.021863    2.023519
H      0.338605   -2.465928    1.250539
H      2.855377   -2.309828    1.023390
H      1.947185   -2.537984   -0.509560
H      4.624060   -1.650982   -0.589740
H      2.183438    2.710628   -1.155451
