25

C      2.673794    1.101376   -0.122189
C      1.376930    0.610891   -0.299046
C      1.167218   -0.650573   -0.893704
C      2.279582   -1.401045   -1.310165
C      3.575588   -0.904030   -1.130498
C      3.773205    0.345403   -0.536590
Cl     5.399168    0.964548   -0.313097
Cl     2.061794   -2.975879   -2.058610
O     -0.117084   -1.186287   -1.094365
C     -1.339603   -0.605471   -0.640606
C     -1.510085   -0.820785    0.869153
C     -2.825748   -0.233003    1.394091
C     -2.816323    1.264399    1.354768
O     -2.191216    1.915062    2.234464
O     -3.471726    1.935876    0.327485
H      2.822546    2.070661    0.336616
H      0.549654    1.223408    0.029435
H      4.428141   -1.488925   -1.452351
H     -1.380498    0.470505   -0.911617
H     -2.176180   -1.109886   -1.169164
H     -1.505882   -1.913859    1.071399
H     -0.656107   -0.377507    1.424344
H     -2.973858   -0.562163    2.445297
H     -3.681126   -0.620368    0.799163
H     -3.462183    2.947652    0.279401
