26

C     -3.230575    0.749835   -0.455073
C     -2.192702    1.637642    0.225418
C     -0.789862    1.053507    0.029619
C     -0.711519   -0.431839    0.330606
C     -1.820545   -1.201293    0.315221
C     -3.213706   -0.645372    0.172190
C      0.618648   -1.062412    0.551316
O      0.685367   -2.218290    1.054669
N      1.832800   -0.377764    0.201319
C      3.141510   -0.954946    0.506538
C      4.239384   -0.046410    0.051246
O      4.676471    0.850445    0.820806
O      4.743346   -0.162030   -1.240270
H     -4.240808    1.197469   -0.336296
H     -3.009091    0.676982   -1.542914
H     -2.232606    2.659066   -0.210785
H     -2.419318    1.716701    1.311829
H     -0.090094    1.607772    0.691678
H     -0.475460    1.217385   -1.024039
H     -1.744241   -2.265249    0.504683
H     -3.819195   -1.334250   -0.454579
H     -3.679194   -0.601733    1.180411
H      1.785061    0.532726   -0.308959
H      3.228466   -1.119222    1.602522
H      3.243497   -1.935694   -0.005655
H      5.474367    0.456973   -1.569866
