38

C     -0.054894    3.451350    0.679570
C     -0.082378    2.265377    1.637744
C     -0.983471    1.162700    1.125643
C     -0.491158    0.085940    0.343403
C     -1.384379   -0.924543   -0.101048
C     -2.747523   -0.827616    0.222214
C     -3.228262    0.247944    0.964410
C     -2.355652    1.236558    1.411140
C     -0.920402   -2.123173   -0.900794
C     -1.398750   -2.052947   -2.349162
N      0.913967    0.005062    0.035695
C      1.814424   -0.564589    1.046671
O      2.202766   -1.863214    0.651468
C      3.081087   -2.403497    1.612523
C      1.439297    0.371400   -1.263810
O      2.639020    0.095722   -1.538348
C      0.633207    1.071188   -2.295623
O     -0.540838    1.454651   -2.053955
O      1.167658    1.324866   -3.557335
H     -1.085302    3.814779    0.478721
H      0.429326    3.164738   -0.275601
H      0.531045    4.279064    1.131675
H     -0.447337    2.614606    2.628383
H      0.953184    1.905070    1.798420
H     -3.442850   -1.592089   -0.102366
H     -4.282836    0.312728    1.199620
H     -2.751067    2.063164    1.988918
H     -1.321587   -3.048697   -0.433750
H      0.182446   -2.220609   -0.899385
H     -0.997087   -1.148848   -2.849231
H     -2.508006   -2.032976   -2.395576
H     -1.040825   -2.947694   -2.900674
H      2.703014    0.100533    1.147104
H      1.298418   -0.598250    2.035095
H      3.376762   -3.422005    1.287413
H      2.585011   -2.498244    2.604096
H      4.009098   -1.795364    1.697696
H      2.104874    1.036916   -3.810964
