17

C     -1.150151   -1.235454   -0.121928
C      0.166547   -1.673896   -0.257156
C      1.231844   -0.767469   -0.179506
C      0.974471    0.606362    0.037984
C     -0.361082    1.033643    0.172563
C     -1.429038    0.123026    0.094434
N     -2.787717    0.579107    0.234518
O     -3.739975   -0.225665    0.165924
O     -3.061032    1.911137    0.446655
N      2.043225    1.573796    0.124496
O      3.237996    1.231319    0.009989
O      1.761722    2.904247    0.336849
O      2.537830   -1.236821   -0.318745
H     -1.951094   -1.960755   -0.186806
H      0.359764   -2.726194   -0.423536
H     -0.571537    2.081516    0.339206
H      2.738226   -2.217901   -0.474942
