37

C     -0.734162   -0.692208    0.078919
C     -2.109936   -0.547699    0.249853
C     -2.458263    0.605433   -0.449387
C     -3.646352    1.327614   -0.630158
N     -3.604279    2.428854   -1.436535
C     -2.443934    2.842477   -2.031088
N     -1.278692    2.169079   -1.813095
C     -1.304314    1.066695   -1.024784
N     -0.250262    0.290271   -0.717074
C      1.150100    0.511632   -1.091055
C      1.887178    1.262180    0.024780
C      2.728950    0.181360    0.663683
C      2.909995   -0.811607   -0.477943
O      1.782004   -0.732728   -1.321008
C      3.079075   -2.252427    0.023063
O      4.214395   -2.367346    0.838171
O      3.967702    0.663830    1.116344
O      2.670785    2.312866   -0.494425
N     -4.852146    1.018529    0.069640
C     -2.980584   -1.540995    0.902497
O     -4.123874   -1.784413    0.433931
N     -2.510887   -2.285364    2.026899
H     -0.132232   -1.496806    0.480875
H     -2.446849    3.720754   -2.661697
H      1.184171    1.096794   -2.036962
H      1.181323    1.689511    0.771322
H      2.159675   -0.287072    1.501928
H      3.807572   -0.537326   -1.077919
H      2.185502   -2.557133    0.608322
H      3.160513   -2.944746   -0.845604
H      5.001629   -2.340977    0.233797
H      3.781009    1.181386    1.942570
H      3.291763    1.933267   -1.170573
H     -4.837852    0.484245    0.964231
H     -5.739609    1.502301   -0.192003
H     -1.573821   -2.093119    2.445243
H     -3.115294   -3.017114    2.462178
