17

C      1.282509    0.080236    0.149783
C      1.504163   -0.703918   -1.112104
O      1.282363   -1.943055   -1.137361
O      1.939266   -0.060997   -2.264194
C     -0.128297    0.713819    0.247392
C     -1.259715   -0.348287    0.240813
C     -1.186169   -1.281836    1.413842
O     -1.644191   -0.930900    2.533066
O     -0.589559   -2.528787    1.276561
C     -0.324297    1.702565   -0.880453
O     -0.831025    1.341692   -1.976800
O      0.121045    3.011888   -0.739545
O     -0.200658    1.422766    1.451929
H      2.049422    0.884068    0.201533
H      1.462989   -0.579905    1.025810
H     -2.246184    0.165644    0.265944
H     -1.231665   -0.944995   -0.696216
