12

C      0.905324   -0.020918   -0.249722
N     -0.198124   -0.748526   -0.508910
C     -1.121575   -0.083510    0.219229
N     -0.621726    0.979297    0.880558
N      0.662109    1.008968    0.576129
N     -2.492099   -0.468595    0.282042
N      2.189759   -0.314427   -0.794054
H      1.345037    1.716277    0.927181
H     -2.830154   -1.301047   -0.249550
H     -3.167260    0.079094    0.860015
H      3.012014    0.284304   -0.558977
H      2.316696   -1.130918   -1.432030
