11

C      0.775293   -0.546408    0.624964
O      0.467782   -1.476194    1.418319
N      2.152041   -0.247420    0.397990
N     -0.241098    0.211361   -0.049515
C     -1.650709   -0.010910    0.110717
O     -2.080727   -0.912934    0.877486
O     -2.562344    0.775749   -0.586323
H      2.897742   -0.793264    0.884142
H      2.429206    0.518497   -0.255019
H      0.062761    0.972147   -0.697517
H     -2.249947    1.509376   -1.210771
