36

C     -2.607076   -0.555046   -0.762012
C     -2.340282    0.386090    0.419344
C     -1.060919    0.014660    1.106094
O     -1.093099   -0.757119    2.102715
N      0.193086    0.499622    0.604201
C      1.472592    0.141132    1.224333
C      2.640775    0.494570    0.282275
C      3.982044   -0.053089    0.789212
C      5.083136    0.283855   -0.170371
O      5.801738    1.298919    0.031333
N      5.296183   -0.514082   -1.334573
C      1.611028    0.851365    2.542280
O      1.458383    2.100840    2.610169
O      1.929078    0.128138    3.687434
C     -3.896768   -0.176502   -1.513644
C     -4.040864   -0.992341   -2.776405
O     -4.105540   -0.408567   -3.890318
O     -4.110875   -2.383311   -2.736279
N     -5.069226   -0.341962   -0.650372
H     -1.747586   -0.497634   -1.467237
H     -2.676866   -1.600392   -0.388592
H     -3.177736    0.328414    1.148323
H     -2.270844    1.435744    0.059884
H      0.182853    1.125985   -0.233343
H      1.486475   -0.958644    1.395403
H      2.433629    0.054845   -0.718783
H      2.707471    1.598868    0.160421
H      3.921362   -1.157297    0.901031
H      4.220123    0.380051    1.784879
H      6.059715   -0.274730   -2.005460
H      4.688209   -1.339503   -1.532256
H      2.033685    0.591758    4.581947
H     -3.824350    0.897520   -1.799644
H     -4.065690   -2.894483   -1.863689
H     -5.193626   -1.352553   -0.410973
H     -5.920217   -0.036704   -1.177329
