46

C     -6.360351   -1.659047    2.435680
C     -5.234279   -1.137442    3.077936
C     -4.069459   -0.877073    2.349380
C     -4.023140   -1.140708    0.969883
C     -5.161883   -1.658925    0.330404
C     -6.324253   -1.919068    1.063007
C     -2.774272   -0.835947    0.182156
C     -2.642169    0.667180   -0.126603
C     -1.282680    0.931495   -0.721492
O     -1.101058    0.759673   -1.957634
N     -0.190352    1.315674    0.131712
C      1.188668    1.528767   -0.322801
C      1.799802    0.212570   -0.857529
C      3.306565    0.302084   -1.161953
C      4.163750    0.442701    0.105828
N      5.580468    0.258486   -0.205819
C      6.189532   -0.876445   -0.403636
N      5.501890   -2.131991   -0.313574
N      7.584537   -0.866771   -0.705885
C      1.244049    2.662775   -1.313131
O      1.121747    2.449689   -2.549784
O      1.385127    3.966714   -0.850097
N     -3.690579    1.100101   -1.055222
H     -7.261017   -1.860291    3.000319
H     -5.264040   -0.934302    4.140070
H     -3.205328   -0.467077    2.857318
H     -5.151104   -1.856670   -0.733838
H     -7.198205   -2.319629    0.565804
H     -2.763776   -1.416420   -0.767106
H     -1.894023   -1.171518    0.774641
H     -2.734916    1.246705    0.820656
H     -0.386507    1.450026    1.149949
H      1.780502    1.840203    0.564066
H      1.279121   -0.094302   -1.788945
H      1.628891   -0.597201   -0.114869
H      3.597426   -0.624148   -1.702098
H      3.513680    1.153250   -1.845987
H      3.846125   -0.268845    0.898625
H      4.039391    1.467528    0.512410
H      6.027540   -3.022544   -0.455275
H      4.481387   -2.203554   -0.113238
H      8.106891    0.035127   -0.773866
H      8.097991   -1.760305   -0.870826
H      1.404751    4.747340   -1.495304
H     -3.544584    2.114682   -1.265952
H     -4.611854    1.047453   -0.563768
