20

C     -2.176427    1.070292    0.594149
C     -1.444510    0.267134   -0.481433
C      0.041083    0.280338   -0.270939
C      0.915530    1.368699   -0.313690
C      2.284771    1.137760   -0.099195
C      2.757403   -0.167120    0.145524
C      1.864664   -1.251021    0.175278
C      0.510241   -0.997002   -0.037057
N     -0.528776   -1.957376   -0.064509
C     -1.706895   -1.208024   -0.342275
O     -2.839627   -1.742392   -0.473562
H     -3.274166    0.969081    0.459063
H     -1.912013    2.145517    0.508776
H     -1.903799    0.711961    1.610782
H     -1.704096    0.621385   -1.502096
H      0.548145    2.367986   -0.507582
H      2.980454    1.966366   -0.124668
H      3.814092   -0.335685    0.307439
H      2.220024   -2.257242    0.355363
H     -0.446098   -2.990658    0.060631
