25

C      0.906560   -1.063757   -0.919019
C      2.217133   -1.356824   -0.530205
C      2.950175   -0.436853    0.232194
C      2.359687    0.778809    0.604195
C      1.049149    1.072971    0.216292
C      0.314744    0.156229   -0.553044
C     -1.106538    0.466761   -0.949442
C     -2.093063    0.218084    0.207478
C     -3.449785    0.744974   -0.168408
O     -4.149154    0.145208   -1.029190
O     -3.922461    1.916699    0.414384
N     -2.183666   -1.211802    0.514664
N      4.290337   -0.737683    0.630146
H      0.352348   -1.789342   -1.501434
H      2.660190   -2.301097   -0.820778
H      2.913765    1.496673    1.195842
H      0.605310    2.014309    0.516216
H     -1.160790    1.533861   -1.260901
H     -1.402332   -0.141618   -1.833087
H     -1.744039    0.766956    1.112165
H     -4.829660    2.291841    0.164530
H     -2.888335   -1.341424    1.277453
H     -1.272348   -1.522727    0.922212
H      4.738591   -1.641152    0.358690
H      4.844182   -0.059094    1.199045
