20

C     -2.418036   -0.358805   -0.010614
C     -1.770994    1.028841    0.166553
C     -0.316939    0.757657    0.107213
C     -0.046372   -0.574249   -0.076772
C     -1.280421   -1.386898   -0.167154
C      1.268290   -1.039813   -0.160162
C      2.323368   -0.114905   -0.051840
C      2.041542    1.251206    0.136934
C      0.712744    1.694990    0.217610
O      3.647856   -0.538688   -0.129750
H     -3.040168   -0.607732    0.876811
H     -3.068146   -0.366208   -0.912742
H     -2.067177    1.714145   -0.656673
H     -2.038912    1.470210    1.150667
H     -1.334643   -1.893187   -1.154977
H     -1.306386   -2.137109    0.652344
H      1.467870   -2.093904   -0.305538
H      2.851286    1.964724    0.220563
H      0.491579    2.744578    0.362717
H      3.883659   -1.514852   -0.265189
