41

C      6.375411    1.882563    0.906462
C      5.645219    2.713369    0.052449
C      4.328971    2.389256   -0.288868
C      3.734007    1.225356    0.223483
C      2.413182    0.889798   -0.111731
C      1.825203   -0.282369    0.397283
C      2.559379   -1.094154    1.274260
C      3.875157   -0.769236    1.613531
C      4.473158    0.385738    1.091243
C      5.793975    0.722570    1.426312
N      0.466258   -0.633659    0.085818
C     -0.159653   -0.372584   -1.182418
O      0.540630   -0.067459   -2.185791
C     -1.652687   -0.534605   -1.353020
C     -2.422095    0.215467   -0.241877
C     -3.877249    0.559564   -0.617418
C     -4.816671   -0.648300   -0.796863
C     -4.955340   -1.552205    0.443911
N     -5.481576   -0.836811    1.606015
N     -2.011097   -1.954640   -1.370557
H      7.394084    2.139036    1.167329
H      6.100476    3.610901   -0.345929
H      3.778392    3.045286   -0.952589
H      1.838395    1.552861   -0.746296
H      2.111763   -1.989117    1.688158
H      4.423423   -1.419134    2.285203
H      6.374022    0.091625    2.089257
H     -0.071030   -1.177410    0.797986
H     -1.935727   -0.089215   -2.333548
H     -1.908085    1.183309   -0.047806
H     -2.389200   -0.349948    0.712883
H     -4.295946    1.233645    0.159917
H     -3.874915    1.144893   -1.562654
H     -5.824281   -0.266068   -1.069948
H     -4.476807   -1.261119   -1.657293
H     -3.983343   -2.021827    0.701579
H     -5.653554   -2.380095    0.196031
H     -6.314131   -0.272255    1.319449
H     -4.750508   -0.182571    1.966363
H     -1.524181   -2.413674   -2.174798
H     -1.673032   -2.416780   -0.495277
