22

C     -2.465179   -1.167407    1.751852
O     -2.322831    0.047300    1.022573
C     -1.213844    0.372432    0.225077
C     -1.198132    1.610589   -0.443733
C     -0.103907    1.962900   -1.239941
C      0.977537    1.091877   -1.381185
C      0.972869   -0.151107   -0.732589
C     -0.118668   -0.502673    0.077610
C      2.151735   -1.077824   -0.859811
C      3.107325   -0.869298    0.274922
O      3.729396    0.176361    0.375768
O     -2.261109    2.506105   -0.326874
H     -1.647291   -1.263712    2.496835
H     -3.435257   -1.155511    2.289556
H     -2.454756   -2.033587    1.056988
H     -0.091241    2.918243   -1.749230
H      1.819191    1.386964   -1.995642
H     -0.105163   -1.456228    0.588568
H      2.680588   -0.912506   -1.823593
H      1.802193   -2.132951   -0.853509
H      3.254880   -1.653661    1.010111
H     -3.078336    2.303694    0.236248
