25

C      1.332908    1.058143   -0.236239
C      2.671653    0.938091    0.148754
C      3.284131   -0.318819    0.183012
C      2.550204   -1.459713   -0.169010
C      1.211411   -1.342303   -0.554690
C      0.594704   -0.080858   -0.597260
C     -0.855963    0.048103   -0.985894
C     -1.771016    0.178253    0.250038
C     -3.183577    0.461181   -0.186470
O     -3.917608   -0.477144   -0.598946
N     -3.684899    1.798268   -0.188524
N     -1.743679   -1.029220    1.081959
O      4.618494   -0.423612    0.568930
H      0.870447    2.037399   -0.251754
H      3.232968    1.822225    0.423083
H      3.015017   -2.437020   -0.141504
H      0.655233   -2.234041   -0.815988
H     -0.973190    0.950117   -1.626916
H     -1.169523   -0.823480   -1.602479
H     -1.420529    1.036146    0.866903
H     -3.083863    2.596184    0.115163
H     -4.660566    1.993725   -0.504883
H     -0.814000   -1.094276    1.556318
H     -1.849222   -1.877710    0.478593
H      5.090464   -1.319639    0.604534
