44

C     -6.780160   -0.577285    0.650298
C     -6.344402    0.735350    0.851029
C     -4.983105    1.003144    1.025509
C     -4.047427   -0.045181    1.006029
C     -4.492598   -1.360884    0.794295
C     -5.854892   -1.624283    0.620751
C     -2.574629    0.242142    1.159210
C     -1.862982    0.321018   -0.205222
C     -2.364174    1.493019   -1.002855
O     -2.039822    2.667727   -0.679895
O     -3.216046    1.280526   -2.082096
N     -0.413157    0.434518   -0.017563
C      0.513494    0.206542   -1.092311
O      0.086757   -0.129533   -2.230745
C      2.002066    0.364790   -0.883291
C      2.515621   -0.636142    0.173204
C      4.040267   -0.586468    0.381031
C      4.825194   -1.098493   -0.839151
C      6.312566   -1.336417   -0.524647
N      7.029638   -0.093640   -0.239882
N      2.333772    1.741764   -0.506907
H     -7.834094   -0.782652    0.514331
H     -7.061308    1.546023    0.868398
H     -4.658366    2.025940    1.171316
H     -3.784598   -2.179794    0.761322
H     -6.192951   -2.639866    0.460253
H     -2.422219    1.188812    1.724047
H     -2.111755   -0.568525    1.764142
H     -2.075912   -0.619375   -0.761442
H     -3.575237    2.059135   -2.621291
H     -0.041976    0.703342    0.921527
H      2.503970    0.140946   -1.849487
H      2.220183   -1.668353   -0.118245
H      2.031944   -0.422449    1.150795
H      4.349818    0.451585    0.626351
H      4.282532   -1.224274    1.259183
H      4.742319   -0.376558   -1.679059
H      4.388651   -2.064025   -1.175911
H      6.416004   -2.032367    0.336350
H      6.787359   -1.824179   -1.402951
H      6.825977    0.604518   -0.991599
H      6.692682    0.297885    0.668628
H      1.980952    2.388200   -1.250118
H      1.850046    1.993814    0.385157
