43

C     -7.085698   -1.412142   -0.115697
C     -6.316905   -2.081636   -1.071464
C     -4.962379   -1.773140   -1.226851
C     -4.367370   -0.786870   -0.424115
C     -3.008359   -0.468821   -0.570684
C     -2.419639    0.526679    0.230059
C     -3.195320    1.172935    1.203607
C     -4.549219    0.864044    1.356884
C     -5.145952   -0.111217    0.546249
C     -6.504997   -0.430474    0.692390
N     -1.024193    0.852623    0.112992
C     -0.297301    0.834517   -1.127831
O     -0.916006    0.798409   -2.226088
C      1.210638    0.935826   -1.139761
C      1.841737   -0.088968   -0.170445
C      3.319115   -0.395998   -0.472781
C      4.254781    0.781196   -0.161511
N      5.653155    0.356144   -0.208764
C      6.293322   -0.309368    0.710745
N      5.666055   -0.699439    1.940052
N      7.661610   -0.650200    0.489050
N      1.632353    2.298634   -0.807071
H     -8.133939   -1.655665    0.000118
H     -6.771920   -2.841681   -1.693410
H     -4.382161   -2.302479   -1.973299
H     -2.407007   -1.012819   -1.288427
H     -2.749465    1.927658    1.839408
H     -5.128137    1.385581    2.109856
H     -7.115543    0.076439    1.430169
H     -0.531438    1.195423    0.968061
H      1.561935    0.701643   -2.170108
H      1.286194   -1.049519   -0.256236
H      1.737383    0.252346    0.882786
H      3.435951   -0.692553   -1.537978
H      3.614431   -1.272770    0.142156
H      4.022543    1.242727    0.822428
H      4.115439    1.562642   -0.936431
H      6.210122   -1.234924    2.652082
H      4.675132   -0.467587    2.167163
H      8.200349   -1.179928    1.209512
H      8.140557   -0.374473   -0.397185
H      1.249803    2.570384    0.127690
H      1.230344    2.956825   -1.514064
