40

C      2.810837   -0.467247   -2.889246
C      1.492618   -0.820498   -2.588465
C      1.184232   -1.382651   -1.346425
C      2.194126   -1.592484   -0.392557
C      3.517515   -1.237158   -0.703887
C      3.822529   -0.676461   -1.948113
C      1.853376   -2.166103    0.961914
C      1.503998   -1.085541    2.004537
C      2.711779   -0.265294    2.377079
O      3.034139    0.752652    1.706320
O      3.508319   -0.665804    3.445075
N      0.407991   -0.230405    1.531269
C     -0.972893   -0.599472    1.677719
O     -1.281210   -1.689008    2.233008
C     -2.066973    0.295352    1.157056
C     -2.052520    0.322505   -0.385288
C     -3.206701    1.106042   -0.934562
C     -4.504957    0.667838   -1.067271
N     -5.264188    1.677034   -1.538746
C     -4.402994    2.708829   -1.674651
N     -3.146393    2.392697   -1.309999
N     -1.923093    1.635884    1.733911
H      3.048291   -0.032266   -3.851400
H      0.709289   -0.658592   -3.317561
H      0.160108   -1.654610   -1.127320
H      4.310187   -1.389177    0.018158
H      4.843120   -0.402129   -2.181725
H      2.702499   -2.780290    1.335224
H      0.990921   -2.860968    0.861680
H      1.177277   -1.605685    2.932129
H      4.336002   -0.141032    3.701318
H      0.635324    0.619755    0.968152
H     -3.043373   -0.126585    1.489606
H     -2.119586   -0.717242   -0.772968
H     -1.101614    0.760075   -0.759019
H     -4.879070   -0.318761   -0.827721
H     -4.694843    3.687368   -2.032256
H     -2.310963    3.019206   -1.309612
H     -2.814530    2.163377    1.589708
H     -1.168580    2.161179    1.234931
