22

C     -1.468756   -1.640970   -0.116130
C     -1.233981   -0.295570   -0.822360
C     -0.405253    0.711362    0.015353
C     -1.092648    1.097536    1.305734
O     -0.988439    0.371003    2.329802
O     -1.885740    2.240461    1.366743
N      0.938838    0.180944    0.278690
C      1.995603    0.251877   -0.689090
O      1.814888    0.833101   -1.793349
C      3.314053   -0.388069   -0.399415
O     -2.453315    0.274254   -1.230893
H     -0.501018   -2.112478    0.155613
H     -2.009450   -2.329223   -0.799725
H     -2.080300   -1.510418    0.800805
H     -0.655243   -0.514531   -1.745889
H     -0.299958    1.642026   -0.585000
H     -2.014939    2.836674    0.558143
H      1.119506   -0.354994    1.157990
H      4.058846   -0.119788   -1.178649
H      3.192546   -1.491039   -0.378983
H      3.687943   -0.043040    0.587137
H     -3.033184    0.360881   -0.429996
