30

C      4.226699   -0.137661    0.808529
C      2.852294   -0.217611    0.132923
C      2.701538   -1.563136   -0.592321
C      1.734296   -0.004951    1.176082
C      0.376431    0.125980    0.532650
C     -0.513899   -0.959668    0.520386
C     -1.762939   -0.841256   -0.095727
C     -2.134559    0.360135   -0.719549
C     -1.247859    1.448182   -0.700387
C      0.001352    1.329573   -0.084690
C     -3.490580    0.497651   -1.354189
C     -4.483359    0.976844   -0.344634
O     -4.682761    2.211630   -0.191330
O     -5.154429    0.058660    0.456805
H      4.332399   -0.933056    1.577556
H      4.358224    0.852208    1.295446
H      5.033617   -0.257899    0.054353
H      2.800793    0.596165   -0.624399
H      2.703111   -2.403253    0.135005
H      1.754587   -1.588599   -1.171101
H      3.537384   -1.708703   -1.309498
H      1.937882    0.923798    1.753609
H      1.737002   -0.841795    1.909528
H     -0.240426   -1.898435    0.985951
H     -2.440278   -1.686329   -0.087638
H     -1.523883    2.387782   -1.162935
H      0.676783    2.176218   -0.087207
H     -3.447376    1.210044   -2.207012
H     -3.824466   -0.480356   -1.763557
H     -5.817580    0.367838    1.157350
