19

C      1.782302   -1.128791   -0.353281
C      1.022081    0.018885   -0.347184
N      1.725989    0.997788    0.241524
C      2.903159    0.432854    0.568682
N      2.974314   -0.870452    0.220815
C     -0.392820    0.154594   -0.828874
C     -1.401635   -0.319816    0.233715
C     -1.336953    0.545127    1.466099
O     -1.617984    1.732287    1.410224
N     -2.757547   -0.289639   -0.315992
H      1.486602   -2.094759   -0.740744
H      1.425377    1.981783    0.419524
H      3.704891    0.963231    1.065230
H     -0.510034   -0.456212   -1.750314
H     -0.593576    1.213201   -1.103804
H     -1.152669   -1.366655    0.523354
H     -1.041692    0.110207    2.415352
H     -3.415062   -0.660451    0.408860
H     -2.804745   -0.963180   -1.115184
