46

C      5.014464   -1.785864    1.274069
C      4.433308   -0.691034    0.415966
C      5.105219    0.536041    0.352059
C      4.626781    1.581529   -0.437172
C      3.408184    1.429195   -1.138014
C      2.733527    0.191009   -1.088958
C      3.257487   -0.882680   -0.350246
C      2.635403   -2.220115   -0.470313
O      3.375295   -3.221876   -0.658070
O      1.261937   -2.440283   -0.331097
C      0.224074   -1.499398   -0.400655
C      0.345083   -0.315947   -1.155479
O      1.532283    0.053025   -1.784495
C     -0.752263    0.527966   -1.309447
C     -1.957473    0.256521   -0.671246
C     -2.103422   -0.903949    0.112026
C     -1.008421   -1.806362    0.230587
C     -1.144828   -3.097218    1.007550
C     -3.434343   -1.121312    0.744134
O     -3.601441   -1.956671    1.671951
C     -4.612207   -0.321556    0.267963
C     -4.196045    1.139034   -0.014346
O     -3.019049    1.159401   -0.828275
C     -5.319268    1.860420   -0.772041
C     -3.909335    1.887886    1.301040
C      2.786180    2.542809   -1.890398
O      2.915090    3.739248   -1.520356
O      5.406757    2.737585   -0.520195
H      5.680203   -1.369646    2.060176
H      4.207040   -2.346684    1.790448
H      5.606494   -2.480887    0.642874
H      6.030298    0.676134    0.898935
H     -0.655514    1.427263   -1.905476
H     -0.273460   -3.772050    0.889298
H     -1.247070   -2.872802    2.089797
H     -2.031174   -3.662529    0.650760
H     -4.988248   -0.796516   -0.664261
H     -5.430876   -0.352151    1.020995
H     -6.257846    1.861183   -0.176587
H     -5.514603    1.356744   -1.743038
H     -5.029899    2.912362   -0.983143
H     -3.082526    1.400940    1.860203
H     -4.812078    1.904467    1.948995
H     -3.605835    2.935401    1.088517
H      2.151089    2.331132   -2.740895
H      5.251027    3.470233   -1.198546
