29

C      2.782468   -1.380261    1.571644
N      2.726895   -0.453443    0.442561
C      1.641029    0.041431   -0.175224
C      2.045459    0.800356   -1.227543
N      1.169638    1.423196   -2.051323
C     -0.170838    1.288345   -1.820892
C     -0.649147    0.500112   -0.737013
C      0.288640   -0.142239    0.105492
C     -2.106683    0.351317   -0.494805
C     -3.000518    0.204192   -1.572674
C     -4.372280    0.063122   -1.341160
C     -4.867029    0.067926   -0.035199
C     -3.990862    0.213192    1.042548
C     -2.618061    0.353669    0.817101
N      3.385136    0.810136   -1.339134
C      3.764798    0.021827   -0.298499
N      5.134027   -0.293717   -0.041126
H      2.935048   -2.413934    1.197351
H      1.844663   -1.339769    2.162266
H      3.616244   -1.105184    2.250370
H     -0.864654    1.803682   -2.471855
H     -0.030253   -0.770678    0.925911
H     -2.637833    0.179459   -2.592485
H     -5.051879   -0.053708   -2.175459
H     -5.929253   -0.041097    0.141635
H     -4.375862    0.220387    2.054119
H     -1.959594    0.481975    1.666955
H      5.407364   -0.936364    0.733784
H      5.883335    0.106069   -0.648143
