27

C      4.515611    0.047899    0.137142
C      3.812984   -0.974162    0.781351
C      2.418121   -0.920736    0.865685
C      1.716770    0.164090    0.312662
C      2.429402    1.180700   -0.345543
C      3.824244    1.123264   -0.427568
C      0.212746    0.206337    0.371944
C     -0.392590   -0.496039   -0.852457
C     -1.905496   -0.509369   -0.889732
O     -2.446125   -1.054913   -1.841291
C     -2.753141    0.122119    0.197912
C     -4.257310   -0.014765   -0.053539
O     -4.962195    0.592289    0.993049
H      5.595087    0.004345    0.071632
H      4.348994   -1.809792    1.212504
H      1.885040   -1.723787    1.359531
H      1.905109    2.014818   -0.795334
H      4.368967    1.910850   -0.932011
H     -0.124720    1.264961    0.406947
H     -0.133088   -0.291373    1.303866
H     -0.036269   -1.549198   -0.876222
H     -0.027879    0.008479   -1.773936
H     -2.505546    1.202776    0.267899
H     -2.513929   -0.360901    1.169246
H     -4.520870    0.480070   -1.015552
H     -4.529295   -1.093082   -0.108750
H     -5.924622    0.475120    0.780851
