47

C     -5.550803   -0.467106   -0.632589
C     -4.928569    0.506126    0.379246
C     -4.200522   -0.286904    1.447582
C     -2.885811   -0.516389    1.371840
C     -2.068954    0.100599    0.305545
C     -2.666849    1.103625   -0.469045
O     -4.029510    1.381927   -0.314942
C     -1.904755    1.846368   -1.366369
C     -0.537557    1.606211   -1.489183
C      0.090093    0.592001   -0.739943
C     -0.699456   -0.205230    0.131137
O     -0.117991   -1.278511    0.816691
C     -0.502942   -2.631944    0.581944
C      1.599839    0.423919   -0.878648
C      2.340856    0.662448    0.453059
C      3.822311    0.414708    0.306612
C      4.305308   -0.415916   -0.726037
C      5.678001   -0.660430   -0.841378
C      6.574030   -0.099110    0.078876
C      6.092812    0.711220    1.113709
C      4.723234    0.963655    1.230690
O      7.941796   -0.341518   -0.022041
O      3.421322   -0.978159   -1.656378
C      2.005464   -0.931428   -1.479518
C     -6.025525    1.357872    1.029455
H     -6.281548   -1.139023   -0.134449
H     -4.759735   -1.090172   -1.101618
H     -6.073768    0.093486   -1.437347
H     -4.767775   -0.753174    2.244719
H     -2.417562   -1.114171    2.142919
H     -2.369133    2.628092   -1.953097
H      0.033693    2.222514   -2.172843
H      0.174582   -3.303483    1.147279
H     -1.542753   -2.820911    0.911368
H     -0.421490   -2.869320   -0.499592
H      1.980201    1.196288   -1.586361
H      2.165979    1.711896    0.778641
H      1.961383   -0.011374    1.247217
H      6.045509   -1.289402   -1.642739
H      6.781255    1.141806    1.828775
H      4.364759    1.587986    2.040574
H      8.323015   -0.937071   -0.748775
H      1.510577   -1.080563   -2.462879
H      1.718564   -1.763118   -0.809133
H     -5.577191    2.063295    1.761425
H     -6.561097    1.951604    0.257573
H     -6.763291    0.716777    1.558028
