18

C     -1.596146   -2.159152    0.465981
C     -0.974632   -0.805633    0.374815
N     -1.758658    0.297023    0.261308
C     -1.194092    1.525906    0.143037
N      0.157792    1.650210    0.127432
C      0.946603    0.550648    0.227159
N      0.376748   -0.678316    0.345795
O      2.335792    0.698318    0.204238
C      3.228560   -0.405016    0.302837
N     -2.019125    2.683167    0.031706
H     -0.938104   -2.844707    1.040670
H     -1.744348   -2.566906   -0.555484
H     -2.578582   -2.095558    0.979792
H      3.073377   -0.935000    1.266476
H      3.061967   -1.105890   -0.542494
H      4.273005   -0.033693    0.261165
H     -1.590770    3.630894   -0.060838
H     -3.059385    2.593706    0.041791
