33

C     -3.971051    0.395971   -0.066689
C     -2.558597    0.409863   -0.678487
C     -1.950232    1.817965   -0.535222
C     -1.622632   -0.707728   -0.109188
C     -1.244024   -0.496622    1.325762
O     -2.023836   -0.555598    2.313145
N      0.146470   -0.282043    1.445806
C      0.617290   -0.381273    0.108303
N     -0.311062   -0.636808   -0.762340
C      2.042894   -0.322780   -0.262704
C      2.964250    0.566037    0.348956
C      4.323003    0.454726    0.006826
C      4.739313   -0.475272   -0.944332
C      3.794663   -1.295009   -1.555269
N      2.487509   -1.205926   -1.199924
C      2.547201    1.655573    1.261826
O      3.334478    2.072545    2.152477
O      1.310801    2.272731    1.112560
C     -2.193853   -2.120981   -0.312241
H     -4.591093    1.196230   -0.524463
H     -4.483563   -0.565958   -0.270998
H     -3.936635    0.569931    1.028230
H     -2.676946    0.221647   -1.769124
H     -2.614526    2.572321   -1.008429
H     -1.819364    2.086584    0.534569
H     -0.965885    1.875862   -1.045089
H      0.706405   -0.224742    2.325126
H      5.060292    1.113237    0.449753
H      5.784054   -0.547718   -1.217842
H      4.101219   -2.013027   -2.304068
H     -2.485627   -2.270129   -1.373627
H     -1.431583   -2.886859   -0.050604
H     -3.079336   -2.292750    0.334918
