16

C     -2.346478   -0.203270   -0.458254
C     -1.861147   -1.002847    0.578807
C     -0.495573   -1.009027    0.879639
C      0.398945   -0.203884    0.150876
C     -0.099645    0.585403   -0.903246
C     -1.466177    0.587032   -1.200591
C      1.846338   -0.233506    0.473696
O      2.357065   -1.305461    0.897372
C      2.713970    0.951715    0.341288
O      2.223298    2.097801    0.164144
O      4.091795    0.813476    0.455375
H     -3.403513   -0.201167   -0.690972
H     -2.543275   -1.619262    1.150027
H     -0.139268   -1.633791    1.689522
H      0.565335    1.180855   -1.514791
H     -1.841669    1.195934   -2.012895
