41

C     -4.647906   -1.580692    1.533976
N     -3.348138   -1.665807    0.863158
C     -3.314066   -0.787416   -0.317445
C     -2.025789   -0.976005   -1.143423
C     -0.736174   -0.529622   -0.427910
C     -0.784119    0.944511   -0.079484
C     -0.661330    1.921084   -1.084353
C     -0.721111    3.279471   -0.759434
C     -0.909159    3.674779    0.567344
C     -1.039327    2.712181    1.571570
C     -0.979700    1.352584    1.251685
O      0.372864   -0.792960   -1.292000
C      1.727552   -0.713244   -0.928759
C      2.690414   -0.915252   -1.923092
C      4.052961   -0.841087   -1.620911
C      4.477103   -0.544690   -0.314697
C      3.511341   -0.371615    0.691100
C      2.148759   -0.446637    0.387676
C      5.946379   -0.512552    0.023186
F      6.358821   -1.782400    0.381113
F      6.689050   -0.086918   -1.064642
F      6.186769    0.353355    1.076043
H     -4.648123   -2.232826    2.433997
H     -5.461736   -1.923226    0.857734
H     -4.852719   -0.537201    1.860354
H     -3.184709   -2.658953    0.575252
H     -2.612296   -1.376153    1.546925
H     -4.173819   -1.023560   -0.984577
H     -3.417528    0.276729   -0.010062
H     -1.930224   -2.048050   -1.422566
H     -2.130395   -0.405591   -2.092324
H     -0.615350   -1.149309    0.486296
H     -0.518233    1.630119   -2.117513
H     -0.623065    4.025973   -1.536954
H     -0.955839    4.726869    0.817017
H     -1.187655    3.019607    2.598655
H     -1.084692    0.619800    2.041661
H      2.380068   -1.133724   -2.937110
H      4.774754   -1.016785   -2.408692
H      3.810167   -0.180881    1.714296
H      1.436201   -0.303913    1.186910
