16

C      2.585284    1.008081    0.505580
C      1.480721    0.854459   -0.489963
C      0.427542    0.075850   -0.233646
C     -0.644128   -0.094517   -1.235060
C     -1.821689   -0.694331   -1.006469
C     -2.324158   -1.142467    0.306454
O     -3.243842   -2.002153    0.347548
O     -1.856887   -0.585985    1.493322
H      3.053093    0.021463    0.708270
H      3.358760    1.695932    0.104411
H      2.186525    1.429830    1.452418
H      1.548362    1.392856   -1.428450
H      0.397241   -0.465387    0.701790
H     -0.447857    0.243338   -2.246543
H     -2.473698   -0.852676   -1.857392
H     -2.225268   -0.884292    2.388592
