34

C      3.417845    1.528392   -0.214728
C      3.715359    0.362291    0.698866
C      2.736842   -0.428522    1.192461
C      1.273407   -0.283454    0.857400
C      0.919922   -1.092415   -0.395533
C     -0.533441   -0.898124   -0.767885
C     -1.487902   -1.537983   -0.055659
C     -2.960609   -1.414420   -0.331437
O     -3.402639   -0.101830   -0.002120
C     -4.725817    0.313207   -0.173239
O     -5.601676   -0.485816   -0.603161
C     -5.113887    1.702594    0.202605
C     -0.883452   -0.001504   -1.932532
C      5.140727    0.072138    1.092608
H      2.791807    2.275265    0.316708
H      2.887703    1.181209   -1.124857
H      4.348647    2.037514   -0.540130
H      3.007004   -1.246103    1.856609
H      0.996355    0.783902    0.724064
H      0.682830   -0.668618    1.716560
H      1.574753   -0.783303   -1.237205
H      1.119047   -2.172451   -0.216865
H     -1.190646   -2.185236    0.765662
H     -3.170924   -1.637701   -1.399536
H     -3.507858   -2.151702    0.294758
H     -5.881316    2.088013   -0.501396
H     -4.225712    2.367567    0.163494
H     -5.526259    1.705456    1.232866
H      0.025196    0.447020   -2.385562
H     -1.407474   -0.585088   -2.717994
H     -1.533942    0.830527   -1.591950
H      5.420483   -0.950192    0.760732
H      5.849550    0.792428    0.633806
H      5.246079    0.136939    2.196390
