27

C     -2.304275    1.017009   -1.098985
C     -2.153239    1.445729    0.366272
C     -0.983518    0.750384    1.010595
O     -0.011999    1.439126    1.425513
N     -0.960877   -0.679713    1.146119
C      0.222132   -1.402167    1.605527
C      1.262953   -1.410211    0.528549
O      1.143386   -2.209178   -0.439454
N      2.354690   -0.480666    0.569782
C      3.264130   -0.293240   -0.556883
C      2.567911    0.441073   -1.662129
O      2.347475    1.675612   -1.550022
O      2.128746   -0.231387   -2.798982
N     -3.376713    1.187602    1.128450
H     -2.524025   -0.068901   -1.177154
H     -3.133977    1.581910   -1.574342
H     -1.368506    1.234310   -1.657619
H     -1.960397    2.542476    0.378542
H     -1.800536   -1.236681    0.871168
H     -0.056533   -2.451156    1.845066
H      0.614633   -0.939720    2.536523
H      2.488649    0.112127    1.419845
H      4.141605    0.303669   -0.226879
H      3.640806   -1.276881   -0.910428
H      2.279335   -1.226450   -2.913293
H     -4.134937    1.804921    0.756373
H     -3.686922    0.200096    0.977847
