34

C     -3.804547   -1.897228   -1.853184
C     -3.134349   -1.045682   -0.806005
C     -2.159071   -0.194868   -1.195038
C     -1.374599    0.688677   -0.257731
C     -0.141172   -0.046778    0.276560
C      0.628072    0.832231    1.242490
C      1.635504    1.644638    0.851863
C      2.158464    1.734332   -0.558766
O      2.846006    0.538360   -0.921286
C      4.066676    0.152543   -0.356742
O      4.655537    0.893294    0.476856
C      4.701643   -1.126054   -0.785668
C      0.211243    0.851268    2.690083
C     -3.576977   -1.151343    0.634759
H     -3.051306   -2.549010   -2.344488
H     -4.277192   -1.247165   -2.619772
H     -4.591775   -2.545352   -1.415063
H     -1.889194   -0.150895   -2.247542
H     -1.046541    1.586946   -0.822773
H     -2.009727    1.047983    0.579525
H      0.497719   -0.377467   -0.568433
H     -0.454955   -0.973384    0.802044
H      2.118799    2.275553    1.593858
H      2.849610    2.600382   -0.646208
H      1.321312    1.906931   -1.265791
H      5.222381   -1.600264    0.072867
H      3.926827   -1.824914   -1.164838
H      5.435244   -0.922078   -1.592947
H     -0.653708    0.178249    2.869850
H     -0.084061    1.880846    2.984065
H      1.056191    0.517045    3.328512
H     -2.721991   -1.433547    1.282173
H     -3.994813   -0.180709    0.974525
H     -4.365250   -1.921958    0.762248
