38

C     -4.749503   -2.287973   -0.522559
C     -3.543926   -1.391520   -0.411507
C     -2.284698   -1.968041   -0.228140
C     -1.133858   -1.177252   -0.119228
C     -1.235357    0.226873   -0.194468
C     -2.509258    0.830828   -0.380893
C     -3.664917    0.012043   -0.489159
O     -4.920767    0.596869   -0.672473
O     -2.569264    2.238321   -0.451077
C     -3.727387    3.046035   -0.632060
C      0.010364    1.046424   -0.074965
O     -0.059079    2.303347   -0.139684
C      1.339486    0.396254    0.120477
C      2.529760    1.157888    0.235653
C      3.775907    0.524007    0.419970
C      3.829634   -0.886106    0.489489
C      2.654158   -1.632669    0.375496
C      1.412396   -1.007671    0.192128
C      0.184471   -1.824494    0.074703
O      0.261887   -3.082883    0.140435
O      5.037716   -1.557405    0.670701
O      4.914174    1.346853    0.525912
C      6.257795    0.916336    0.713365
O      2.472301    2.552999    0.166334
H     -5.241302   -2.137095   -1.506529
H     -5.466655   -2.056959    0.293011
H     -4.476900   -3.361777   -0.440604
H     -2.202222   -3.046817   -0.169775
H     -5.780981    0.071325   -0.756797
H     -3.420925    4.111979   -0.641128
H     -4.435497    2.899107    0.210280
H     -4.207961    2.818232   -1.606586
H      2.716348   -2.712591    0.431375
H      5.087130   -2.568354    0.721904
H      6.916621    1.807618    0.756189
H      6.355477    0.367223    1.673329
H      6.582737    0.286418   -0.141162
H      3.292093    3.142631    0.242762
