44

C     -5.832877    1.641793    0.012713
C     -4.794549    1.073366   -0.925401
C     -3.479779    1.096754   -0.620997
C     -2.940020    1.689433    0.660637
C     -1.414313    1.553765    0.768148
C     -0.988428    0.113300    0.966286
C     -0.482992   -0.584210   -0.075528
C     -0.051960   -2.026427    0.009151
O      1.048906   -2.180275    0.905453
C      2.346275   -1.687287    0.691333
C      2.736242   -1.074759   -0.516818
C      4.043283   -0.603026   -0.678843
C      4.974972   -0.738289    0.372662
C      4.588008   -1.346154    1.573490
C      3.281191   -1.818559    1.726321
C      6.273968   -0.258680    0.179077
C      6.610416    0.333401   -1.037868
C      5.634977    0.433207   -2.035564
O      5.918922    0.963865   -3.140717
O      4.405777   -0.030149   -1.824394
C     -1.180197   -0.519528    2.324062
C     -5.224533    0.454720   -2.230341
H     -5.810062    1.094177    0.977990
H     -5.633586    2.718777    0.193844
H     -6.855591    1.549525   -0.408041
H     -2.776269    0.675421   -1.334623
H     -3.196838    2.770190    0.690024
H     -3.420090    1.196948    1.533480
H     -1.064901    2.149492    1.638762
H     -0.933264    2.000314   -0.131155
H     -0.381163   -0.097642   -1.041868
H     -0.900873   -2.645036    0.367672
H      0.223640   -2.404866   -0.998400
H      2.040195   -0.964704   -1.336533
H      5.292566   -1.456891    2.389057
H      2.990112   -2.287089    2.657885
H      7.020561   -0.342273    0.960020
H      7.612929    0.708381   -1.202589
H     -1.856714   -1.395918    2.244523
H     -0.202265   -0.837964    2.740409
H     -1.633502    0.200792    3.037116
H     -4.915548   -0.611796   -2.258979
H     -6.324892    0.501284   -2.364470
H     -4.747730    0.992616   -3.077427
