36

C     -3.418929    1.846828    1.451348
O     -2.694243    0.893046    0.681738
C     -1.297368    0.873314    0.540629
C     -0.681243   -0.133450   -0.257166
C     -1.395336   -1.145699   -0.928341
C     -0.722637   -2.083282   -1.670315
C     -1.667156   -3.005890   -2.252617
O     -1.364833   -3.982243   -2.988383
C     -3.056509   -2.641152   -1.860519
C     -2.879336   -1.391115   -0.968150
C      0.668065   -2.050827   -1.771600
O      1.287668   -2.911374   -2.450404
O      1.341204   -1.093213   -1.138629
C      0.738702   -0.153909   -0.404668
C      1.492042    0.828960    0.238504
C      0.895026    1.782277    1.012626
C     -0.484604    1.838355    1.182045
O      1.820663    2.633964    1.581023
C      3.141375    2.261133    1.189536
C      2.975079    1.025445    0.264796
C      3.697478   -0.050399    1.012995
C      4.169526    0.426721    2.147850
O      3.869592    1.768850    2.304872
O      3.516665    1.264408   -1.008728
H     -3.113166    1.789158    2.517306
H     -3.243014    2.869555    1.056147
H     -4.502452    1.620521    1.380372
H     -3.524817   -3.473051   -1.291925
H     -3.659123   -2.403519   -2.763320
H     -3.401860   -0.519199   -1.417317
H     -3.264071   -1.590456    0.055212
H     -0.905683    2.616281    1.803516
H      3.672629    3.109152    0.705996
H      3.806257   -1.077319    0.689135
H      4.722778   -0.155136    2.872599
H      3.461628    0.413267   -1.516164
