26

C      2.074371    0.788724    2.593462
C      2.339910    0.428447    1.134630
C      1.141145   -0.300685    0.517912
C      1.406425   -0.648920   -0.954476
C      0.258072   -1.452223   -1.579545
C     -0.991143   -0.629312   -1.701238
O     -1.117178    0.165782   -2.671852
N     -2.012683   -0.714797   -0.697365
C     -3.179911    0.162308   -0.692143
C     -2.782654    1.544861   -0.284578
O     -2.496019    1.791808    0.916297
O     -2.693789    2.553697   -1.235198
H      1.890353   -0.129892    3.190420
H      1.192232    1.459589    2.670866
H      2.957881    1.314108    3.013367
H      2.544296    1.361537    0.565460
H      3.241225   -0.220572    1.082878
H      0.945031   -1.234953    1.088867
H      0.245037    0.353218    0.589881
H      1.571555    0.282943   -1.539389
H      2.333011   -1.260189   -1.021145
H      0.565655   -1.787792   -2.593598
H      0.060121   -2.365331   -0.977438
H     -1.910993   -1.411551    0.074885
H     -3.929920   -0.224585    0.030986
H     -3.652031    0.173778   -1.698065
