38

C     -5.892400   -0.834716    1.262273
C     -4.710906   -0.539299    0.342691
C     -3.710538    0.411352    1.016418
C     -2.574556    0.839599    0.074104
C     -1.589154   -0.301015   -0.221579
C     -0.402387    0.200593   -1.053095
C      0.573363   -0.943147   -1.369197
C      1.807683   -0.455924   -2.157315
C      3.072938   -0.314171   -1.294279
C      2.961140    0.802784   -0.250541
C      4.271864    1.001738    0.441935
O      5.089071    1.856943    0.003557
O      4.595409    0.204576    1.543618
C      5.832788    0.320327    2.235358
H     -6.437055    0.102534    1.505114
H     -5.539644   -1.308685    2.203055
H     -6.593499   -1.530611    0.755085
H     -4.214733   -1.500363    0.091654
H     -5.093002   -0.081893   -0.595795
H     -3.285678   -0.067838    1.925773
H     -4.250110    1.328407    1.340438
H     -2.022376    1.673143    0.561315
H     -3.000296    1.228772   -0.876840
H     -1.212523   -0.722041    0.736578
H     -2.106813   -1.106400   -0.784870
H     -0.779665    0.630967   -2.007026
H      0.121550    1.003927   -0.494214
H      0.035009   -1.697091   -1.985148
H      0.882806   -1.452119   -0.429813
H      1.599628    0.501764   -2.683748
H      2.031036   -1.205250   -2.948182
H      3.925632   -0.090072   -1.973008
H      3.291723   -1.280927   -0.789172
H      2.199993    0.534201    0.511834
H      2.652491    1.752607   -0.739544
H      6.675789    0.105909    1.544785
H      5.940542    1.343712    2.653178
H      5.854881   -0.412290    3.067988
