44

C      6.934599   -0.051397    1.069755
C      5.911013    0.554694    1.803361
C      4.633215    0.682763    1.249971
C      4.373263    0.210414   -0.047545
C      5.404968   -0.407149   -0.774761
C      6.681314   -0.533254   -0.217480
C      2.988295    0.321463   -0.631510
C      2.088767   -0.836003   -0.165664
C      0.676506   -0.620092   -0.654573
O      0.381787   -0.876865   -1.854363
N     -0.313065   -0.067974    0.227091
C     -1.679897    0.220977   -0.218930
C     -2.599801    0.448824    1.001156
C     -4.078407    0.701239    0.647050
C     -4.786048   -0.555040    0.111570
C     -6.268095   -0.301521   -0.217893
N     -7.086023   -0.107942    0.979550
C     -1.669299    1.423428   -1.121181
O     -1.119316    2.494432   -0.747169
O     -2.287627    1.358912   -2.365852
N      2.617978   -2.122443   -0.629497
H      7.922776   -0.150805    1.499954
H      6.106931    0.922799    2.802153
H      3.846437    1.147469    1.831412
H      5.220440   -0.791980   -1.770116
H      7.473439   -1.007228   -0.782595
H      2.538936    1.289579   -0.316279
H      3.041248    0.338135   -1.742906
H      2.081323   -0.848384    0.947063
H     -0.035564    0.155939    1.210140
H     -2.050912   -0.659339   -0.784684
H     -2.535188   -0.432819    1.676251
H     -2.225335    1.324596    1.576361
H     -4.163215    1.528879   -0.089374
H     -4.584965    1.033129    1.577518
H     -4.292695   -0.883139   -0.826607
H     -4.699992   -1.384108    0.847282
H     -6.662411   -1.179994   -0.772542
H     -6.366834    0.582439   -0.885383
H     -6.875114   -0.862197    1.672730
H     -6.851446    0.812533    1.414607
H     -2.297701    2.162064   -2.982964
H      2.619294   -2.148674   -1.675561
H      1.986420   -2.886359   -0.294412
