32

C     -2.894870   -0.247965    2.187073
C     -3.002121   -0.043952    0.692972
C     -1.907038    0.030843   -0.088682
C     -0.518627   -0.010525    0.420796
C      0.518627   -0.004182   -0.420801
C      1.907037   -0.045551    0.088678
C      3.002121    0.029240   -0.692975
C      4.331294   -0.105127   -0.044032
C      5.412676   -0.572574   -0.682459
C      6.717861   -0.714997   -0.018615
O      6.884899   -0.377847    1.183952
C      2.894873    0.233248   -2.187076
C     -4.331296    0.090415    0.044032
C     -5.412676    0.557862    0.682463
C     -6.717862    0.700286    0.018623
O     -6.884903    0.363142   -1.183946
H     -2.591326    0.701522    2.675668
H     -3.856672   -0.589883    2.621000
H     -2.156834   -1.043389    2.421614
H     -2.039862    0.156659   -1.158581
H     -0.329868   -0.026644    1.486763
H      0.329868    0.011937   -1.486768
H      2.039859   -0.171363    1.158578
H      4.408804    0.141813    1.009187
H      5.347887   -0.889921   -1.714728
H      7.553131   -1.116767   -0.576432
H      2.156836    1.028670   -2.421622
H      3.856675    0.575166   -2.621002
H      2.591331   -0.716241   -2.675669
H     -4.408808   -0.156524   -1.009187
H     -5.347884    0.875208    1.714732
H     -7.553131    1.102054    0.576444
