20

C      2.557385   -0.759995   -0.997724
C      2.294084    0.227655   -0.136958
C      1.270063    0.073084    0.953330
C     -0.126028    0.003035    0.380936
C     -0.772965   -1.244584    0.312216
C     -2.059106   -1.349993   -0.221788
C     -2.713691   -0.214340   -0.698398
C     -2.081947    1.029475   -0.647001
C     -0.791310    1.151364   -0.117244
O     -0.203414    2.418163   -0.105299
H      3.307278   -0.621904   -1.769710
H      2.030818   -1.707726   -0.938594
H      2.845481    1.159840   -0.215798
H      1.343293    0.926489    1.659747
H      1.504615   -0.837497    1.547423
H     -0.280711   -2.139641    0.672277
H     -2.548333   -2.314447   -0.267101
H     -3.710465   -0.298201   -1.111855
H     -2.595541    1.904422   -1.025133
H      0.730494    2.594800    0.239709
