50

C      4.975112   -1.388785    0.079320
C      4.318249   -0.203719   -0.638788
C      4.764461   -0.132530   -2.105012
C      2.800466   -0.268703   -0.525479
C      2.070047    0.735950    0.145128
C      0.657005    0.697409    0.179219
C     -0.036335   -0.413394   -0.382761
C      0.714205   -1.396522   -1.056610
C      2.102301   -1.330427   -1.116693
C     -1.572561   -0.450624   -0.428986
C     -2.143226   -1.890808   -0.193420
C     -3.691588   -1.940986   -0.184108
C     -4.306273   -0.724163    0.449700
C     -3.647979    0.384027    0.756989
C     -2.143098    0.441587    0.718998
C     -1.580519    1.862553    0.655242
C     -0.069209    1.826584    0.892279
C     -4.590394    1.432874    1.291442
O     -5.869456    0.810746    1.186035
C     -5.705230   -0.467477    0.685411
O     -6.650108   -1.269957    0.467923
C     -2.000472    0.050705   -1.835168
O      2.741663    1.792751    0.768885
C      3.225683    1.682473    2.102427
H      4.639008   -1.427421    1.137422
H      4.716781   -2.349865   -0.413649
H      6.080059   -1.273800    0.070242
H      4.702932    0.718640   -0.155621
H      4.265763    0.720431   -2.613208
H      5.862804    0.025599   -2.160054
H      4.518722   -1.068799   -2.648953
H      0.235710   -2.212348   -1.576070
H      2.633048   -2.110826   -1.646453
H     -1.804679   -2.599888   -0.975229
H     -1.767182   -2.276366    0.780310
H     -4.060924   -2.011053   -1.229812
H     -4.030270   -2.849754    0.357492
H     -1.810192    0.006584    1.690455
H     -1.810610    2.344049   -0.317804
H     -2.038198    2.491575    1.449407
H      0.109573    1.716276    1.983500
H      0.353747    2.805355    0.577584
H     -4.362413    1.659368    2.354320
H     -4.555992    2.350136    0.666873
H     -1.746094   -0.706572   -2.607511
H     -1.471118    0.987279   -2.109916
H     -3.091063    0.244558   -1.894933
H      2.384372    1.496393    2.801598
H      3.727053    2.629859    2.387187
H      3.956417    0.851026    2.180850
