37

C     -0.383871    0.618759    3.462357
N      0.208455   -0.067440    2.308151
C     -0.346126   -1.366446    1.892101
C      0.667164   -2.276164    1.232621
O      0.849533   -3.420156    1.731345
N      1.378035   -1.942641    0.033040
C      1.527373   -0.638274   -0.548530
C      1.774272   -0.556283   -1.930622
C      1.984290    0.676384   -2.548986
C      1.975381    1.844678   -1.791534
C      1.759957    1.780637   -0.414823
C      1.528501    0.546648    0.220812
C      1.346752    0.549711    1.681279
O      2.152083    1.218669    2.385574
C     -1.680921   -1.241286    1.121000
C     -1.620521   -0.436909   -0.151651
C     -1.544343   -1.083599   -1.397434
C     -1.526299   -0.336488   -2.579384
C     -1.585890    1.058547   -2.527416
C     -1.672692    1.708881   -1.293870
C     -1.697124    0.965811   -0.109849
H     -0.672989    1.652257    3.176678
H     -1.293208    0.095336    3.826867
H      0.350624    0.660969    4.294093
H     -0.627392   -1.899462    2.830124
H      1.807149   -2.744669   -0.482902
H      1.792151   -1.455379   -2.533860
H      2.157614    0.724442   -3.616206
H      2.140796    2.801218   -2.270082
H      1.763057    2.700634    0.157450
H     -2.439245   -0.780254    1.790957
H     -2.062734   -2.262906    0.900991
H     -1.492211   -2.163779   -1.453091
H     -1.458574   -0.839118   -3.535389
H     -1.564181    1.635435   -3.442772
H     -1.720948    2.789301   -1.254830
H     -1.773917    1.482938    0.837791
