48

C     -2.643483    3.050221    0.946020
C     -1.994042    1.892533    0.177538
C     -2.679678    0.585465    0.580472
C     -2.182937   -0.120562    1.696463
C     -2.745800   -1.330677    2.093658
C     -3.832741   -1.858554    1.405989
C     -4.390723   -1.163162    0.326449
C     -5.510737   -1.693001   -0.333906
C     -6.100927   -0.997848   -1.387775
C     -5.587510    0.234411   -1.785660
C     -4.470797    0.775639   -1.144070
C     -3.835290    0.080872   -0.088313
N     -0.544356    1.850176    0.458741
C      0.164901    0.999862   -0.508830
C      1.612194    0.796217   -0.055299
C      2.375047   -0.109091   -1.028047
C      3.793581   -0.305872   -0.563925
C      4.108877   -1.344388    0.327854
C      5.422925   -1.507100    0.802390
C      6.427351   -0.637234    0.343241
C      6.113676    0.405055   -0.532486
C      4.801688    0.577711   -0.977709
C      5.765747   -2.656915    1.716162
F      6.072414   -3.768177    0.953424
F      4.696993   -2.957939    2.542728
F      6.853132   -2.343060    2.513228
H     -2.474015    2.934152    2.038139
H     -3.737098    3.078823    0.752480
H     -2.211065    4.019139    0.617528
H     -2.123011    2.092540   -0.906883
H     -1.342351    0.260266    2.262604
H     -2.334740   -1.863511    2.941553
H     -4.251086   -2.803907    1.731328
H     -5.934903   -2.642527   -0.028905
H     -6.966759   -1.410017   -1.889829
H     -6.061326    0.777993   -2.593085
H     -4.141684    1.747177   -1.477223
H     -0.154188    2.817653    0.358269
H      0.153170    1.475480   -1.515960
H     -0.324732    0.003611   -0.582838
H      2.120116    1.784097    0.005569
H      1.613104    0.336181    0.957767
H      1.864948   -1.094816   -1.102959
H      2.369902    0.343586   -2.044180
H      3.328905   -2.023956    0.650029
H      7.454278   -0.761423    0.663156
H      6.890492    1.079667   -0.868705
H      4.572544    1.395212   -1.650151
