38

C     -5.158068    1.020604    0.303207
C     -3.708319    0.605682    0.213356
C     -3.377301   -0.714164   -0.170096
C     -2.030354   -1.102329   -0.271283
C     -1.014057   -0.169797   -0.012080
C     -1.324211    1.130596    0.431226
C     -2.681547    1.541489    0.471871
O     -3.043556    2.867687    0.730083
C     -0.188325    1.970717    0.916710
O     -0.387314    3.058445    1.518295
C      1.222099    1.453343    0.848628
C      1.369999    0.426103   -0.278105
O      0.324752   -0.540821   -0.192752
C      2.720423   -0.252817   -0.209287
C      2.917721   -1.341367    0.661700
C      4.168833   -1.955425    0.757600
C      5.240180   -1.483645   -0.001910
C      5.065582   -0.391283   -0.853922
C      3.813921    0.233958   -0.957334
O      3.657941    1.336961   -1.796920
C     -1.675841   -2.492000   -0.737876
O     -4.369635   -1.653659   -0.473969
H     -5.625789    0.962963   -0.702165
H     -5.698422    0.348604    1.002677
H     -5.290829    2.054037    0.682320
H     -2.422224    3.654799    0.611498
H      1.924407    2.298129    0.676032
H      1.467346    0.983694    1.826122
H      1.259146    0.951875   -1.252441
H      2.102988   -1.714108    1.270070
H      4.308750   -2.795653    1.425417
H      6.208921   -1.960233    0.075095
H      5.906038   -0.026544   -1.430652
H      4.429791    1.704094   -2.341232
H     -1.631173   -2.508757   -1.846805
H     -0.694624   -2.815862   -0.331299
H     -2.426748   -3.233522   -0.393090
H     -5.360502   -1.451791   -0.450783
