49

C      4.300032    3.901611    0.863248
O      3.388837    3.012870    0.224984
C      3.471023    1.613340    0.285986
C      2.501357    0.862948   -0.390121
C      2.524144   -0.551065   -0.369430
C      1.561542   -1.357621   -1.047095
C      1.657071   -2.758285   -0.917897
C      2.687392   -3.331584   -0.177817
N      3.603224   -2.547921    0.438837
C      3.552426   -1.193490    0.368084
C      4.520860   -0.441005    1.038308
C      4.484836    0.951658    0.998437
C      0.408898   -0.755139   -1.854289
C     -0.760149   -0.293052   -0.925601
C     -1.466909   -1.416249   -0.110938
C     -2.994805   -1.193105   -0.177165
C     -3.393398   -1.335484   -1.659980
C     -2.681600   -0.233698   -2.481563
N     -1.756107    0.564378   -1.634451
C     -2.570138    1.269871   -0.611489
C     -3.356626    0.251636    0.298797
C     -3.012458    0.423075    1.774940
C     -3.154481    1.589124    2.416320
O     -4.747564    0.424876    0.139289
O      0.014148   -1.607375   -2.904639
H      4.280470    3.744073    1.962348
H      3.997048    4.946879    0.648874
H      5.326889    3.741703    0.471837
H      1.735308    1.414152   -0.913456
H      0.942876   -3.420887   -1.385335
H      2.757860   -4.407689   -0.091127
H      5.304706   -0.937247    1.597658
H      5.247557    1.504754    1.529229
H      0.788348    0.149569   -2.369284
H     -0.261389    0.349726   -0.164260
H     -1.226037   -2.432513   -0.481634
H     -1.114318   -1.398594    0.942141
H     -3.523478   -1.958573    0.433015
H     -3.104521   -2.340383   -2.038938
H     -4.495649   -1.250037   -1.776125
H     -3.446702    0.438339   -2.930798
H     -2.149197   -0.668429   -3.348697
H     -3.273200    1.966033   -1.120721
H     -1.907838    1.930880   -0.009472
H     -2.669925   -0.430610    2.352266
H     -3.504944    2.477583    1.900779
H     -2.912696    1.660013    3.471801
H     -4.972100    1.368692    0.349670
H     -0.600621   -2.297747   -2.554834
