21

C     -3.802073   -0.899126    0.033115
O     -2.408822   -0.784555   -0.229166
C     -1.818280    0.410284   -0.650385
O     -2.511307    1.453777   -0.799432
C     -0.341116    0.460207   -0.879502
C      0.391166    0.793463    0.422483
C      1.880477    0.826705    0.200670
O      2.364023    1.711312   -0.490270
C      2.789988   -0.198860    0.830852
N      3.420567   -1.037587   -0.185662
H     -4.382173   -0.667847   -0.885305
H     -4.094132   -0.202377    0.847217
H     -4.029187   -1.937631    0.350005
H     -0.000002   -0.527488   -1.259423
H     -0.112951    1.227017   -1.652190
H      0.061483    1.786723    0.798356
H      0.131010    0.035635    1.193259
H      2.226161   -0.849845    1.532382
H      3.576000    0.321338    1.419386
H      2.671736   -1.489858   -0.759802
H      3.987432   -0.431286   -0.822484
