38

C     -3.239411    0.699931   -1.802569
C     -2.121875   -0.335818   -1.883183
C     -1.853596   -0.958236   -0.531733
C     -2.730891   -1.948242   -0.060696
C     -2.507506   -2.569419    1.166946
C     -1.406915   -2.212192    1.943802
C     -0.524090   -1.212367    1.509252
C     -0.746794   -0.575624    0.265831
N      0.177127    0.425274   -0.200709
C      1.409616   -0.015547   -0.861907
O      2.521185    0.455941   -0.129803
C      3.713472    0.037721   -0.758155
C      4.902277    0.549767    0.040019
C     -0.120573    1.837664   -0.108279
O      0.510669    2.647617   -0.840289
C     -1.129950    2.381339    0.831295
O     -1.663706    1.645841    1.701765
O     -1.495522    3.724825    0.777993
C      0.671912   -0.864748    2.353869
H     -3.415314    1.134804   -2.808888
H     -4.181664    0.227779   -1.451856
H     -2.962436    1.518778   -1.108147
H     -1.211174    0.141837   -2.300270
H     -2.418864   -1.129972   -2.602340
H     -3.586580   -2.247725   -0.653561
H     -3.186355   -3.337705    1.514118
H     -1.244347   -2.717428    2.887912
H      1.420136    0.384648   -1.901543
H      1.428418   -1.129394   -0.921704
H      3.782804    0.449978   -1.790694
H      3.773023   -1.074040   -0.795809
H      5.847771    0.226215   -0.444302
H      4.880967    1.659438    0.083708
H      4.869109    0.143596    1.073345
H     -1.101823    4.360036    0.094464
H      0.545805   -1.221261    3.398319
H      0.816215    0.235422    2.389692
H      1.578880   -1.338731    1.924108
