30

C      5.063736   -0.169451   -0.800898
C      4.128296   -1.205378   -0.757976
C      2.783844   -0.927917   -0.490739
C      2.360269    0.396780   -0.269301
C      3.315578    1.429940   -0.301389
C      4.658139    1.146575   -0.570209
C      0.941503    0.712760    0.022764
O      0.670352    1.732325    0.714893
N     -0.123259   -0.122657   -0.465859
C     -1.509048    0.138831   -0.190804
C     -2.370549   -0.891718    0.266806
C     -3.740016   -0.612191    0.429871
C     -4.247558    0.659235    0.157511
C     -3.398150    1.673715   -0.291714
C     -2.038482    1.411264   -0.468960
O     -3.895786    2.944301   -0.572445
C     -1.874905   -2.247136    0.615217
O     -0.654192   -2.448902    0.855276
O     -2.768446   -3.311034    0.712104
H      6.103703   -0.387227   -1.007127
H      4.446346   -2.226504   -0.924661
H      2.089865   -1.755153   -0.431585
H      3.021876    2.458273   -0.130086
H      5.384477    1.948534   -0.599613
H      0.099788   -0.948630   -1.063472
H     -4.421536   -1.374806    0.785875
H     -5.303410    0.854381    0.296216
H     -1.397126    2.195115   -0.852060
H     -4.877769    3.166142   -0.456608
H     -2.447541   -4.239466    0.959745
