22

C     -1.930434    1.292767    1.048080
O     -2.476013    0.810305    2.028217
C     -1.713625    0.469822   -0.196266
C     -0.796077   -0.757839    0.054529
C      0.594604   -0.391688    0.653769
C      1.453927    0.554931   -0.231167
C      2.781608    0.851749    0.417483
O      2.929541    1.900713    1.098538
O      3.835055   -0.049281    0.315036
O      1.632138    0.057846   -1.535185
O      1.306399   -1.556665    0.999708
O     -0.625060   -1.467204   -1.147424
O     -2.953531    0.068138   -0.724356
H     -1.597356    2.325139    1.076629
H     -1.236026    1.120980   -0.957604
H     -1.297562   -1.418833    0.802031
H      0.409525    0.147112    1.608480
H      0.918121    1.523519   -0.321237
H      2.165781   -0.776274   -1.480620
H      1.402448   -2.115423    0.186507
H     -1.428142   -2.038451   -1.267936
H     -3.375321   -0.551363   -0.072378
