49

C      2.222225   -1.523034    1.437132
C      2.673414   -0.556533    0.373834
C      3.876940    0.034830    0.513191
C      4.510786    0.873341   -0.529732
C      5.480202    1.777343   -0.293858
C      5.908889    2.188812    1.059707
O      7.044248    2.712962    1.213388
O      5.058774    2.071003    2.156125
O      6.119677    2.383731   -1.376876
C      1.797903   -0.313754   -0.804171
O      1.714091    0.847083   -1.291050
C      1.023313   -1.433640   -1.453426
C     -0.457160   -1.074654   -1.683206
C     -1.262540   -0.848438   -0.373530
C     -2.483215    0.050971   -0.638912
C     -2.250253    1.518431   -1.019541
C     -3.613182    2.183749   -0.778609
C     -4.300283    1.256700    0.170803
O     -5.417267    1.461139    0.620985
C     -3.445731    0.095307    0.555528
C     -4.160690   -1.262066    0.608569
C     -3.151318   -2.431326    0.747295
C     -1.734915   -2.180982    0.224485
O     -0.926617   -3.087496    0.352832
C     -2.779816    0.430373    1.916641
H      1.115758   -1.553632    1.497521
H      2.601416   -2.539118    1.200613
H      2.597555   -1.221701    2.438869
H      4.456684   -0.183175    1.401788
H      4.232443    0.689044   -1.560003
H      5.351739    2.374721    3.077035
H      5.884798    2.161645   -2.337836
H      1.110260   -2.373473   -0.873925
H      1.488888   -1.635301   -2.441781
H     -0.485360   -0.167580   -2.322747
H     -0.935580   -1.883698   -2.278211
H     -0.615177   -0.337460    0.369167
H     -3.020053   -0.395870   -1.513140
H     -1.944712    1.628431   -2.082002
H     -1.474947    1.972706   -0.364644
H     -4.192480    2.246033   -1.724927
H     -3.492378    3.193088   -0.330551
H     -4.878409   -1.284513    1.457939
H     -4.758919   -1.408760   -0.318747
H     -3.068591   -2.690905    1.825071
H     -3.568126   -3.323517    0.232286
H     -2.097266   -0.372950    2.260365
H     -2.195411    1.373063    1.857669
H     -3.559605    0.559069    2.697952
