34

C     -1.975027   -0.520626    1.740532
C     -1.800140   -0.183670    0.236038
C     -1.917190   -1.444731   -0.631427
C     -0.724400   -2.408152   -0.398635
C      0.574059   -1.782184    0.115951
O      1.501331   -2.541250    0.351462
C      0.746800   -0.287741    0.422528
C     -0.467600    0.487537   -0.122589
C     -0.642632    1.959772    0.270558
C     -2.109281    2.261904   -0.069974
C     -2.754475    0.914443   -0.096734
O     -3.944103    0.742392   -0.314248
C      2.062976    0.262088   -0.190390
C      3.288920   -0.011714    0.693876
C      4.517672    0.584191    0.082373
O      5.202173   -0.080027   -0.739684
O      4.879553    1.891511    0.381755
H     -3.005451   -0.892493    1.927731
H     -1.272665   -1.308512    2.079693
H     -1.814364    0.376571    2.375261
H     -2.872221   -1.971948   -0.414503
H     -1.947421   -1.159991   -1.707223
H     -0.509011   -2.944679   -1.347675
H     -1.040822   -3.175806    0.340645
H      0.781930   -0.155534    1.526189
H     -0.361838    0.494403   -1.236606
H     -0.460778    2.096849    1.358829
H      0.036238    2.626400   -0.303106
H     -2.190323    2.734809   -1.072361
H     -2.574646    2.909660    0.703306
H      2.219922   -0.173366   -1.202661
H      1.990628    1.363282   -0.317176
H      3.134442    0.437770    1.698614
H      3.447746   -1.101157    0.826611
