39

C     -5.156372    2.155308   -0.406542
C     -3.688374    2.012460   -0.637777
N     -3.560268    0.684621   -0.010916
C     -5.008968    0.810284    0.224888
C     -2.536985   -0.274785    0.250368
N     -2.830895   -1.445815    0.889691
C     -1.860353   -2.379099    1.158492
N     -0.563263   -2.152738    0.786247
C     -0.277499   -0.992733    0.146809
C     -1.216790   -0.058528   -0.124344
N     -0.662425    1.006473   -0.733100
C      0.651168    0.656887   -0.811537
N      0.915684   -0.571446   -0.289388
C      2.216072   -1.227988   -0.118725
C      3.047163   -0.545623    0.981012
C      4.330583   -0.034466    0.294973
C      4.175816   -0.451883   -1.128042
C      3.044306   -1.096940   -1.349113
C      4.500911    1.488848    0.396912
O      4.796108    1.859460    1.717421
N     -2.205136   -3.588089    1.830242
H     -5.752108    2.136436   -1.344956
H     -5.409849    2.956279    0.321521
H     -3.091925    2.772077   -0.085034
H     -3.427326    1.968492   -1.718611
H     -5.569971    0.017832   -0.318738
H     -5.234419    0.821338    1.314516
H      1.408413    1.303236   -1.235788
H      2.078867   -2.308056    0.109504
H      2.473059    0.273119    1.468093
H      3.311006   -1.286716    1.767133
H      5.224664   -0.540441    0.721739
H      4.914022   -0.264731   -1.901489
H      2.757745   -1.485696   -2.320918
H      5.351702    1.803789   -0.244829
H      3.590701    2.015916    0.025618
H      3.930912    2.035440    2.170375
H     -1.473876   -4.303311    2.039782
H     -3.192100   -3.769209    2.118786
