40

C      0.115374    3.172338    1.257826
C      0.628382    2.441878    0.003228
C     -0.467517    2.346526   -1.094988
C     -1.116621    0.958264   -1.246959
C     -1.210906    0.208231    0.091722
C      0.187582   -0.000847    0.777028
C      1.254063    1.067613    0.367606
C      2.180705    0.568905   -0.760752
C      2.875640   -0.725721   -0.351091
C      1.894505   -1.767236    0.125926
C      0.715896   -1.426090    0.684077
C      2.296828   -3.216910    0.099190
C     -2.061597   -1.057410   -0.033531
C     -1.809719   -1.984322   -0.976309
C     -3.219213   -1.280910    0.912919
O     -4.434535   -1.219753    0.217793
H     -0.248298    4.186602    0.987262
H     -0.710990    2.620757    1.747502
H      0.939108    3.296030    1.992758
H      1.439735    3.091518   -0.396835
H     -1.267425    3.096314   -0.906537
H     -0.018886    2.620365   -2.075191
H     -0.550918    0.358664   -1.986881
H     -2.137768    1.092087   -1.668234
H     -1.782373    0.894656    0.752824
H      0.008007    0.150820    1.865429
H      1.916902    1.227946    1.249679
H      1.625854    0.398338   -1.703334
H      2.961360    1.332501   -0.970585
H      3.446328   -1.113410   -1.222563
H      3.598722   -0.517059    0.466925
H      0.095839   -2.214941    1.103019
H      3.315014   -3.343159   -0.325592
H      1.580343   -3.791813   -0.524866
H      2.295571   -3.629331    1.130519
H     -2.424387   -2.875984   -1.056233
H     -0.978841   -1.880042   -1.665513
H     -3.218266   -0.539856    1.743289
H     -3.121867   -2.283827    1.380672
H     -4.591629   -0.261731    0.008803
