42

C      5.479989   -0.416485   -0.596954
C      4.134080   -0.047695   -0.680043
C      3.653182    1.044747    0.061314
C      4.545176    1.799115    0.832553
C      5.891594    1.430912    0.915829
C      6.364268    0.317972    0.205793
N      7.741185   -0.058457    0.290717
N      2.290346    1.474156   -0.056296
C      1.199958    0.761415    0.034168
C     -0.047815    1.388539   -0.443453
C     -1.161055    0.670864   -0.649911
C     -1.199947   -0.761377   -0.215665
N     -2.290332   -1.474122   -0.125207
C     -3.653172   -1.044723   -0.242806
C     -4.134075    0.047705    0.498568
C     -5.479995    0.416464    0.415514
C     -6.364277   -0.318008   -0.387218
C     -5.891592   -1.430927   -1.097280
C     -4.545165   -1.799101   -1.014036
N     -7.741208    0.058380   -0.472094
C      0.047825   -1.388500    0.261956
C      1.161062   -0.670824    0.468420
N      2.216874   -1.257238    1.241164
N     -2.216872    1.257282   -1.422647
H      5.834942   -1.268311   -1.163268
H      3.467199   -0.608859   -1.322364
H      4.192768    2.665971    1.377351
H      6.566572    2.014815    1.528866
H      8.103313   -0.883678   -0.237243
H      8.408311    0.484652    0.883038
H     -0.008875    2.419579   -0.777046
H     -3.467193    0.608875    1.140882
H     -5.834955    1.268274    0.981848
H     -6.566572   -2.014839   -1.710306
H     -4.192750   -2.665945   -1.558849
H     -8.103348    0.883575    0.055902
H     -8.408339   -0.484748   -1.064392
H      0.008885   -2.419540    0.595550
H      2.865763   -0.665799    1.803936
H      2.253045   -2.288979    1.401532
H     -2.253025    2.289018   -1.583040
H     -2.865774    0.665843   -1.985405
