18

C     -0.745120   -0.335063    0.909829
C      0.801392   -0.466792    0.938729
C      1.411173   -0.738370   -0.418282
O      1.651444   -1.927736   -0.758767
N      1.696655    0.320200   -1.335883
O      1.414589    0.638745    1.557143
C     -1.233294    0.753551   -0.017214
O     -1.361877    0.536669   -1.252633
O     -1.518470    2.015902    0.494169
N     -1.363976   -1.624875    0.586912
H     -1.065745   -0.063246    1.940369
H      1.032418   -1.344724    1.582092
H      2.116486    0.104178   -2.267128
H      1.477310    1.314722   -1.110387
H      1.077131    1.466242    1.128949
H     -1.835342    2.762744   -0.112403
H     -1.152089   -1.883727   -0.404150
H     -2.402684   -1.528419    0.668684
