44

C     -4.548709   -2.305142    2.280367
C     -4.807422   -1.229783    1.274106
N     -3.769071   -0.684676    0.583630
C     -3.949902    0.299265   -0.340483
C     -5.253353    0.784741   -0.595802
C     -5.447568    1.799481   -1.542165
C     -4.355845    2.323931   -2.236664
C     -3.065950    1.847087   -1.987899
C     -2.847441    0.843191   -1.027224
N     -1.525451    0.327929   -0.788308
C     -0.355326    1.160155   -0.679250
O     -0.465913    2.414324   -0.758930
C      0.988537    0.571160   -0.465736
C      1.155730   -0.639474    0.229527
C      2.432691   -1.173167    0.424948
C      3.566184   -0.510448   -0.057063
C      3.404384    0.706142   -0.746166
C      2.128117    1.242190   -0.941271
O      4.821596   -1.099871    0.167868
C      6.087929   -0.521139   -0.156181
C      7.149018   -1.619674   -0.127431
C      6.440288    0.581240    0.847945
C     -6.333046    0.236628    0.108231
C     -6.111472   -0.772986    1.046161
H     -5.137318   -3.210793    2.022936
H     -4.843687   -1.951095    3.290465
H     -3.470984   -2.573719    2.296223
H     -6.440655    2.180186   -1.749062
H     -4.510511    3.097333   -2.977978
H     -2.242268    2.245505   -2.565422
H     -1.433215   -0.702252   -0.650404
H      0.309839   -1.165129    0.650715
H      2.543382   -2.105536    0.964262
H      4.252260    1.248053   -1.139040
H      2.030812    2.178034   -1.478026
H      6.068172   -0.103778   -1.186059
H      6.889063   -2.410669   -0.862572
H      7.206937   -2.078803    0.882849
H      8.143593   -1.203686   -0.396222
H      6.473511    0.168342    1.878875
H      7.429602    1.022537    0.601864
H      5.683656    1.391621    0.819070
H     -7.343168    0.587889   -0.065624
H     -6.947027   -1.195146    1.590838
