13

C      0.887785   -0.265686   -0.373119
C     -0.637020   -0.156080   -0.555628
C     -1.123934    1.225413   -0.225806
O     -1.121670    2.122671   -1.109368
O     -1.531596    1.537216    1.065951
O     -1.303791   -1.094535    0.248797
C      1.305622   -0.101816    1.058109
O      1.658459    1.026933    1.490486
O      1.270668   -1.189068    1.922065
H      1.396883    0.497790   -1.001783
H      1.225881   -1.262061   -0.730788
H     -0.876904   -0.355596   -1.626269
H     -1.150382   -1.985183   -0.162647
