40

C     -6.229230    0.202344    0.065777
O     -5.179412    1.160855   -0.016568
C     -3.814169    0.857683    0.106375
C     -2.887888    1.900413    0.006745
C     -1.515919    1.638515    0.108231
C     -1.039156    0.324095    0.280057
C      0.460689    0.049766    0.434882
N      0.768475   -1.393042    0.361042
C     -0.103456   -2.172758    1.241940
C     -1.542754   -2.130326    0.731287
C     -1.981664   -0.717073    0.455403
C     -3.353894   -0.450186    0.335287
C      1.309698    0.803248   -0.618745
C      2.776700    0.474535   -0.490026
C      3.546741    1.069286    0.522979
C      4.900004    0.746644    0.661795
C      5.495713   -0.178167   -0.206483
C      4.730841   -0.778330   -1.211896
C      3.377359   -0.457231   -1.353014
O      6.842979   -0.507858   -0.077605
O     -3.340841    3.204302   -0.189730
H     -6.223221   -0.285873    1.063177
H     -7.201892    0.717611   -0.071170
H     -6.114699   -0.559250   -0.734288
H     -0.832626    2.473714    0.064499
H      0.762493    0.420894    1.439813
H      0.638779   -1.730772   -0.623060
H     -0.051554   -1.779566    2.281960
H      0.246984   -3.226921    1.263363
H     -1.621443   -2.720134   -0.207560
H     -2.206242   -2.596144    1.492273
H     -4.056802   -1.266933    0.434320
H      0.946287    0.551679   -1.639731
H      1.203740    1.900535   -0.498224
H      3.097691    1.780816    1.204969
H      5.483455    1.213463    1.445115
H      5.185202   -1.496274   -1.882821
H      2.797977   -0.936982   -2.132059
H      7.423614   -0.091010    0.640716
H     -2.698559    3.984429   -0.265893
