21

C      3.656248   -0.210244    1.235542
O      2.240198   -0.153097    1.113171
C      1.591444   -0.075600   -0.123835
O      2.266851   -0.053523   -1.190511
C      0.111925   -0.019675   -0.169656
C     -0.530776    0.168144   -1.336985
C     -2.029941    0.194889   -1.437481
C     -2.688641    0.431970   -0.074890
N     -2.072612   -0.415627    0.950953
C     -0.659435   -0.056263    1.135450
H      3.927197   -0.266892    2.309717
H      4.112906    0.702103    0.796725
H      4.046506   -1.111983    0.717820
H      0.025301    0.218274   -2.265270
H     -2.372725   -0.778647   -1.848957
H     -2.338263    0.997300   -2.140992
H     -3.772394    0.196575   -0.144066
H     -2.596260    1.503603    0.211371
H     -2.130587   -1.416829    0.647203
H     -0.592388    0.940419    1.623108
H     -0.194555   -0.794896    1.823889
