39

C      2.084295   -0.573582   -0.311581
C      1.092453   -0.594217    0.867488
C     -0.194641    0.225355    0.621563
N     -1.179103   -0.485370   -0.217634
C     -2.055545   -1.393341    0.556121
C     -3.193280   -0.620159    1.265100
C     -3.949974    0.347943    0.341282
C     -5.059654    1.017073    1.089650
O     -6.250553    0.641806    0.924966
O     -4.769568    2.021266    2.004359
C     -2.641351   -2.463507   -0.337943
O     -2.969693   -2.194930   -1.525186
O     -2.867146   -3.746828    0.154189
C      2.860112    0.751240   -0.409364
C      3.910320    0.714043   -1.535531
C      4.489601    2.086101   -1.760410
O      5.162708    2.649777   -0.855569
O      4.270412    2.739339   -2.969237
N      4.967937   -0.250422   -1.224963
H      1.559755   -0.771293   -1.269479
H      2.809307   -1.401847   -0.156107
H      0.824941   -1.649545    1.087737
H      1.600131   -0.203811    1.776117
H     -0.635181    0.495738    1.604463
H      0.049694    1.189965    0.133287
H     -0.672549   -1.021913   -0.960161
H     -1.462832   -1.915001    1.340815
H     -3.911300   -1.350398    1.701248
H     -2.772635   -0.048155    2.119765
H     -4.370961   -0.199139   -0.530482
H     -3.258828    1.130635   -0.038272
H     -5.506288    2.470335    2.533279
H     -2.660077   -3.987632    1.115491
H      3.360594    0.964253    0.560417
H      2.148638    1.578209   -0.616323
H      3.406798    0.393680   -2.474811
H      4.643825    3.664910   -3.134702
H      5.634965   -0.285514   -2.031131
H      5.504675    0.074935   -0.387730
