21

C      1.066205    0.219243   -0.312941
C      2.182145   -0.757350    0.074923
C      3.530162   -0.117413   -0.070527
O      3.850930    0.820055    0.642739
C     -0.313975   -0.440690   -0.176400
C     -1.455945    0.467277   -0.684467
C     -2.751490   -0.290819   -0.677245
O     -3.296479   -0.620897   -1.764647
O     -3.342584   -0.650073    0.530902
N     -1.604850    1.677529    0.128604
H      1.217498    0.548876   -1.364685
H      1.119471    1.109036    0.350869
H      2.139387   -1.652071   -0.583364
H      2.049569   -1.089861    1.127418
H      4.233727   -0.496931   -0.804381
H     -0.317867   -1.380501   -0.772882
H     -0.490274   -0.714277    0.887642
H     -1.234076    0.767807   -1.734004
H     -4.212414   -1.168857    0.549753
H     -0.822083    2.335472   -0.088694
H     -1.547057    1.434446    1.144757
