45

C      6.499156   -0.270951   -0.341814
C      5.677197   -1.233881    0.514453
C      4.514757   -0.539454    1.240499
C      3.397464   -0.100959    0.282090
C      2.196780    0.458018    1.059686
C      1.121173    1.066988    0.142355
C      0.469899    0.075749   -0.842788
C     -0.181211   -1.161516   -0.192815
C     -1.254754   -0.849473    0.865371
C     -2.450402   -0.074409    0.291722
C     -3.578574    0.041461    1.330128
C     -4.708998    1.016804    0.937776
C     -5.607032    0.507049   -0.214011
C     -4.987457    0.633073   -1.579144
O     -4.716998    1.770657   -2.046579
O     -4.741271   -0.496387   -2.355521
O     -4.181527    2.288847    0.657515
H      7.388496   -0.801506   -0.742480
H      6.846753    0.590943    0.266515
H      5.902361    0.098599   -1.201144
H      5.292626   -2.061610   -0.120271
H      6.349991   -1.681403    1.277835
H      4.896254    0.339184    1.805757
H      4.093616   -1.257682    1.977944
H      3.074801   -0.977462   -0.319307
H      3.780957    0.683744   -0.404281
H      2.553434    1.262370    1.739882
H      1.754211   -0.334903    1.698862
H      1.578262    1.893366   -0.444430
H      0.333596    1.532074    0.772289
H     -0.292748    0.619868   -1.439285
H      1.232031   -0.268656   -1.573440
H      0.606565   -1.792829    0.270034
H     -0.640608   -1.777123   -0.996673
H     -1.617524   -1.818642    1.272879
H     -0.807865   -0.287683    1.712657
H     -2.823329   -0.614076   -0.601240
H     -2.118612    0.940957   -0.010312
H     -4.008266   -0.966061    1.522931
H     -3.143431    0.401189    2.288961
H     -5.362971    1.096193    1.838154
H     -5.893945   -0.549023   -0.021582
H     -6.549395    1.096381   -0.215062
H     -4.953686   -1.426793   -2.016145
H     -4.939776    2.928968    0.694469
