36

C     -2.128040    2.213427    1.083189
C     -1.802594    1.572698   -0.269678
C     -1.541914    2.656191   -1.326120
C     -0.615561    0.635536   -0.127871
N      0.638667    1.156228   -0.253025
C      1.752378    0.391260   -0.131242
C      3.040869    0.923631   -0.273685
N      4.116124    0.099272   -0.150337
C      3.965890   -1.228582    0.108226
N      2.721027   -1.757726    0.250664
C      1.618223   -0.974987    0.136572
N      0.380039   -1.504386    0.288129
C     -0.749408   -0.745118    0.193081
C     -2.095264   -1.428078    0.366541
C     -2.030307   -2.543014    1.420264
C     -2.574653   -1.988993   -0.975953
N      5.113825   -2.064836    0.231064
N      3.245410    2.311966   -0.548226
H     -1.271647    2.823661    1.443185
H     -2.348046    1.430177    1.839195
H     -3.021565    2.867238    0.992228
H     -2.694983    1.016834   -0.622710
H     -0.711047    3.326248   -1.016203
H     -2.454696    3.272458   -1.472928
H     -1.282171    2.185217   -2.298453
H     -2.850553   -0.706416    0.738960
H     -1.658280   -2.134543    2.384355
H     -1.357890   -3.365054    1.092711
H     -3.043877   -2.964866    1.591304
H     -2.652740   -1.176324   -1.728893
H     -1.865977   -2.756908   -1.354669
H     -3.577970   -2.451960   -0.861244
H      5.006400   -3.084249    0.429780
H      6.072600   -1.665606    0.123417
H      2.443311    2.972751   -0.650070
H      4.214420    2.686855   -0.651562
