28

C     -4.389039    0.899007   -0.333505
C     -3.039434    0.269931   -0.113719
C     -1.845820    1.003155   -0.310624
C     -0.588454    0.382032   -0.095198
C     -0.542782   -0.970081    0.316080
C     -1.737764   -1.680064    0.505881
C     -2.968688   -1.067687    0.293670
C      0.759621   -1.640504    0.547490
O      0.790412   -2.847737    0.914428
C      2.024793   -0.900253    0.350112
C      3.264827   -1.529395    0.567766
C      4.456622   -0.826647    0.380214
C      4.425258    0.507290   -0.025262
C      3.201986    1.143899   -0.244838
C      1.991927    0.448260   -0.059822
C      0.691872    1.121843   -0.292228
O      0.681966    2.328754   -0.658773
O     -1.893327    2.340833   -0.717535
H     -5.214884    0.183206   -0.133993
H     -4.478830    1.238272   -1.386885
H     -4.516014    1.765150    0.349467
H     -1.723125   -2.716161    0.820595
H     -3.872024   -1.644787    0.449419
H      3.314156   -2.564170    0.882846
H      5.406315   -1.317540    0.549671
H      5.350731    1.049691   -0.169883
H      3.204090    2.180027   -0.559216
H     -2.754389    2.843673   -0.888554
