48

C     -1.766143   -1.644439    2.254940
C     -2.434110   -2.150222    0.971364
C     -3.699475   -1.410899    0.725677
O     -4.692686   -1.417004    1.500754
N     -3.657036   -0.656539   -0.476625
C     -2.429351   -1.018474   -1.175978
N     -1.651269   -1.810423   -0.219907
C     -0.227080   -1.903142   -0.318321
O      0.378469   -2.912381    0.132945
C      0.524602   -0.788683   -0.999020
C     -0.319747    0.506420   -0.961851
C     -1.723964    0.319151   -1.600471
C     -2.687945    1.349926   -1.098430
C     -2.592192    2.741582   -1.193248
C     -3.613320    3.525485   -0.632384
C     -4.706066    2.912779    0.010195
C     -4.784350    1.513444    0.091927
C     -3.760616    0.755922   -0.482068
O     -1.651468    0.425603   -3.001514
N      1.847446   -0.556192   -0.368987
C      1.924971   -0.358043    0.986089
N      3.116177   -0.121752    1.589550
C      4.266362   -0.062946    0.877923
C      5.481233    0.181419    1.529058
C      6.667937    0.247994    0.793899
C      6.644769    0.071914   -0.592378
C      5.435031   -0.172190   -1.250323
C      4.234392   -0.242652   -0.517730
C      2.991196   -0.485059   -1.130045
O      2.934873   -0.633268   -2.383234
H     -0.821641   -2.196987    2.439382
H     -1.541069   -0.558557    2.177164
H     -2.435539   -1.812931    3.125215
H     -2.614472   -3.245384    1.017738
H     -2.676219   -1.646810   -2.059809
H      0.641166   -1.100754   -2.057741
H     -0.438244    0.830047    0.096429
H      0.225224    1.316201   -1.494545
H     -1.746916    3.206601   -1.683669
H     -3.558576    4.604660   -0.692010
H     -5.488325    3.522540    0.443155
H     -5.621735    1.036466    0.583796
H     -1.130870   -0.349365   -3.336502
H      1.034511   -0.390059    1.600451
H      5.507656    0.320619    2.602827
H      7.606440    0.437017    1.298834
H      7.565961    0.124817   -1.158206
H      5.442010   -0.305449   -2.325111
