30

C      4.961478    0.058922    0.144405
C      3.659563    0.629739   -0.314664
O      3.640842    1.743679   -0.905183
N      2.444033   -0.102105   -0.104514
C      1.143452    0.393474   -0.566600
C     -0.009461   -0.338507    0.174441
C     -1.417646    0.192511   -0.221134
C     -2.559401   -0.555945    0.522360
C     -3.945203   -0.056819    0.081512
O     -4.941518   -0.757707    0.773174
O     -2.460417   -1.945435    0.324699
O     -1.506316    1.583643   -0.022060
O      0.174182   -0.277205    1.569329
C      1.042015    0.194637   -2.053628
O      0.745909    1.162172   -2.803152
O      1.257432   -1.061603   -2.607547
H      5.215174   -0.826761   -0.474354
H      4.880228   -0.249009    1.207769
H      5.773139    0.811442    0.050574
H      2.504132   -1.038491    0.357387
H      1.074509    1.480130   -0.334598
H      0.040146   -1.412201   -0.112781
H     -1.556403    0.007022   -1.308613
H     -2.462714   -0.362275    1.613115
H     -4.040585    1.029678    0.302669
H     -4.070902   -0.210093   -1.014144
H     -5.807622   -0.401766    0.444252
H     -2.544508   -2.116553   -0.650066
H     -1.539380    1.751575    0.955176
H      0.305845    0.673852    1.819751
