23

C     -1.220934   -0.278426    1.124780
C     -2.022945   -0.709849   -0.137724
N     -1.077438   -0.650364   -1.252542
C      0.182015   -0.251831   -0.756358
C      1.350989   -0.089699   -1.497797
C      2.519046    0.315233   -0.828334
C      2.488792    0.547842    0.569234
C      1.287676    0.372583    1.285286
C      0.147438   -0.029697    0.590026
O      3.645819    0.949347    1.234454
O      3.694360    0.481255   -1.559636
C     -3.193096    0.200744   -0.390503
O     -3.012804    1.333625   -0.911411
O     -4.476733   -0.175616   -0.006083
H     -1.619125    0.649063    1.591885
H     -1.193505   -1.098577    1.874027
H     -2.375973   -1.757744   -0.022065
H     -1.286546   -0.906402   -2.243398
H      1.357390   -0.271524   -2.564899
H      1.245596    0.545266    2.353100
H      3.650114    1.121960    2.232966
H      4.561584    0.771329   -1.124048
H     -4.651719   -1.068517    0.439038
