49

C     -6.655189   -1.360334   -2.090071
C     -5.338625   -1.910042   -1.540773
C     -4.598465   -0.901976   -0.647621
C     -3.946193    0.232050   -1.455002
C     -3.262644    1.283428   -0.563702
C     -2.030866    0.744054    0.194333
C     -2.337889    0.464493    1.676772
C     -1.264718   -0.398938    2.364719
C      0.003923    0.375181    2.765649
C      0.910733    0.670664    1.599752
O      1.081607    1.829503    1.250099
C      1.616127   -0.435947    0.863983
C      3.100523   -0.285318    0.998145
O      3.694981   -0.837779    1.963599
N      3.831616    0.519859    0.062721
C      5.280692    0.708428    0.174812
C      6.047318   -0.553494   -0.275423
C      6.932765   -0.153143   -1.473549
N      6.691598    1.256656   -1.703170
C      5.758007    1.744787   -0.768239
O      5.389762    2.948796   -0.739323
H     -6.470315   -0.539609   -2.813082
H     -7.199370   -2.169852   -2.620841
H     -7.297004   -0.988344   -1.263251
H     -5.568049   -2.813129   -0.934195
H     -4.686272   -2.228742   -2.382824
H     -3.804661   -1.459021   -0.105754
H     -5.298279   -0.481283    0.107540
H     -3.204621   -0.191080   -2.167637
H     -4.722782    0.755570   -2.050817
H     -4.004814    1.727990    0.135916
H     -2.926777    2.109701   -1.228445
H     -1.234427    1.513952    0.141222
H     -1.636150   -0.169320   -0.302361
H     -2.464619    1.425527    2.221631
H     -3.302959   -0.079072    1.755101
H     -1.014624   -1.281141    1.737397
H     -1.712308   -0.799712    3.300398
H     -0.277965    1.318345    3.283540
H      0.576208   -0.235118    3.497286
H      1.316213   -1.427216    1.266338
H      1.325835   -0.407330   -0.207969
H      3.303615    0.993574   -0.705971
H      5.555770    0.999958    1.212332
H      6.680884   -0.928110    0.557747
H      5.351496   -1.367694   -0.576063
H      8.007128   -0.316142   -1.241351
H      6.654008   -0.732144   -2.380128
H      7.149777    1.828511   -2.446918
