31

C      4.112159    0.613173   -0.491197
N      2.815047    0.506924   -1.163877
C      1.826955    1.464242   -0.637800
C      1.373377    1.162277    0.803505
C      0.704490   -0.176481    0.920868
C      1.273607   -1.348005    1.411173
N      0.395238   -2.372360    1.320128
C     -0.719386   -1.858459    0.771295
C     -0.568518   -0.521918    0.510904
C     -1.585697    0.234890   -0.070061
C     -2.801351   -0.418807   -0.390534
C     -2.946099   -1.799155   -0.116221
C     -1.899348   -2.533195    0.469541
O     -3.880766    0.257569   -0.977285
C     -3.874176    1.641864   -1.310439
H      4.863540    0.027905   -1.061124
H      4.456717    1.669180   -0.457165
H      4.062509    0.196482    0.537070
H      2.458912   -0.471888   -1.068944
H      0.938548    1.454572   -1.305236
H      2.239167    2.496208   -0.681910
H      0.652198    1.946254    1.119165
H      2.231940    1.221937    1.504230
H      2.277710   -1.446428    1.802647
H      0.557542   -3.362404    1.609813
H     -1.436022    1.288223   -0.263131
H     -3.873716   -2.300774   -0.360658
H     -2.008429   -3.589850    0.677032
H     -3.072174    1.852928   -2.049067
H     -3.722348    2.253803   -0.396252
H     -4.851627    1.911292   -1.760250
