28

C     -2.361006   -1.758992   -0.169112
C     -1.160545   -1.226994    0.623565
C     -1.533507   -0.923450    2.078843
N     -0.560020   -0.044174   -0.028899
C      0.876636    0.052271   -0.092888
C      1.628929   -0.947221   -0.732584
C      3.022058   -0.847500   -0.798396
C      3.673919    0.249855   -0.228238
C      2.932492    1.250166    0.407163
C      1.539293    1.154005    0.474481
F      5.024773    0.345076   -0.293525
C     -1.364870    1.086337   -0.439006
O     -2.404515    1.386014    0.206657
C     -1.002024    1.898732   -1.619739
O     -0.083791    1.519515   -2.393241
O     -1.680961    3.080397   -1.908905
H     -2.699950   -2.725721    0.260675
H     -3.212354   -1.047685   -0.142312
H     -2.067267   -1.930127   -1.226540
H     -0.415419   -2.052801    0.653890
H     -2.375746   -0.204887    2.142443
H     -0.656782   -0.498522    2.612282
H     -1.835458   -1.859944    2.594552
H      1.134642   -1.793775   -1.192046
H      3.595182   -1.619865   -1.294962
H      3.436431    2.100343    0.848551
H      0.975505    1.931948    0.973657
H     -2.425643    3.426999   -1.316364
