44

C      5.661361    0.453293   -0.999814
N      5.086734   -0.891725   -1.093574
C      4.697562   -1.398700    0.229411
C      3.398373   -0.774354    0.682072
C      2.168540   -1.069577    0.045590
C      0.981302   -0.461278    0.485077
C      1.024974    0.444308    1.563024
C      2.240034    0.745093    2.186542
C      3.417249    0.140034    1.746969
O      2.288508    1.648178    3.246702
O     -0.212369   -0.797940   -0.180378
C     -1.509339   -0.239865    0.047539
C     -1.671063    1.064974   -0.764434
C     -3.097223    1.610400   -0.584337
C     -4.132596    0.510903   -0.879162
C     -3.781832   -0.766055   -0.078293
O     -2.464486   -1.189605   -0.389924
C     -4.739261   -1.922042   -0.414985
O     -6.044029   -1.648457    0.020782
O     -5.412209    0.965292   -0.518149
O     -3.308901    2.691814   -1.455623
O     -0.751902    2.035044   -0.332923
O      2.092306   -1.961100   -1.028540
H      4.907227    1.173300   -0.616974
H      5.970520    0.790810   -2.011275
H      6.556032    0.459431   -0.339068
H      5.833416   -1.522875   -1.468159
H      5.511242   -1.231917    0.972140
H      4.563034   -2.501077    0.179247
H      0.131806    0.929781    1.925426
H      4.350393    0.388060    2.238377
H      1.452966    2.104535    3.593703
H     -1.648362   -0.055188    1.136197
H     -1.515383    0.837219   -1.847082
H     -3.230598    1.942618    0.473818
H     -4.104569    0.264819   -1.967899
H     -3.874667   -0.563374    1.015191
H     -4.754799   -2.092142   -1.512623
H     -4.373915   -2.861164    0.059885
H     -6.043462   -1.757331    1.007433
H     -5.734354    1.539050   -1.261302
H     -2.896846    3.489581   -1.031740
H      0.072407    1.915297   -0.872601
H      2.896179   -2.438068   -1.415087
