20

C     -0.982448    1.317591    0.014986
C     -2.206605    1.180970    0.540627
C     -2.835905   -0.146170    0.616973
O     -3.988420   -0.280506    1.107072
C     -2.089127   -1.306300    0.111446
O     -2.582663   -2.464215    0.158709
C     -0.746332   -1.089312   -0.451795
C     -0.222401    0.149793   -0.509660
C      1.164753    0.364493   -1.059718
C      2.211598    0.397563    0.058426
N      2.290439   -0.894131    0.735351
H     -0.536447    2.303619   -0.027240
H     -2.733999    2.050522    0.912721
H     -0.184666   -1.941578   -0.815936
H      1.426125   -0.427918   -1.795643
H      1.194360    1.331625   -1.606807
H      3.203383    0.653776   -0.376557
H      1.945873    1.187661    0.795031
H      2.700940   -1.588211    0.068978
H      2.971542   -0.799272    1.523034
