24

C      0.577706   -0.304815   -0.068319
C     -0.675197   -1.022170    0.456093
C     -1.900597   -0.811581   -0.447394
C     -2.456107    0.615982   -0.369856
N     -3.684135    0.718589   -1.152056
C      1.804545   -0.647032    0.788836
C      3.074071    0.038595    0.270910
N      2.972454    1.489673    0.400738
H      0.767660   -0.613194   -1.119911
H      0.414453    0.793203   -0.044011
H     -0.904611   -0.678056    1.488566
H     -0.469612   -2.114179    0.503582
H     -1.643014   -1.057926   -1.500787
H     -2.693404   -1.520025   -0.121448
H     -2.662506    0.889262    0.689422
H     -1.711514    1.330459   -0.780895
H     -3.982740    1.720808   -1.145694
H     -4.434148    0.183841   -0.656049
H      1.624920   -0.344408    1.843927
H      1.968622   -1.746716    0.770996
H      3.234261   -0.229638   -0.796577
H      3.950035   -0.328155    0.851290
H      3.831596    1.907786   -0.024066
H      2.997262    1.729696    1.418625
