14

C      0.102287    0.024133    0.696537
C      0.859844   -0.281451   -0.597452
C      2.287472    0.150258   -0.482928
O      2.623670    1.319735   -0.806626
O      3.239201   -0.723139    0.027969
C     -1.329429   -0.418796    0.588387
O     -1.652927   -1.564152    1.002543
C     -2.352725    0.439325   -0.029754
O     -2.050599    1.576741   -0.478177
O     -3.665757   -0.004882   -0.124299
H      0.143202    1.114169    0.913044
H      0.586614   -0.506217    1.546191
H      0.382414    0.247682   -1.451275
H      0.826733   -1.373405   -0.804158
