27

C      3.247428   -0.843224    0.108793
O      2.164883   -0.452266   -0.708384
C      1.063544   -0.032378    0.083075
C      0.364991    1.133652   -0.657868
C     -1.061891    1.358961   -0.115431
C     -1.965597    0.132900   -0.411282
C     -1.181205   -1.210798   -0.497494
C      0.113145   -1.246454    0.356073
O     -0.174318   -1.374951    1.728253
O     -2.008469   -2.321024   -0.245004
O     -3.035169    0.070873    0.500815
O     -1.633418    2.496267   -0.712815
O      1.135683    2.298013   -0.493731
H      3.680251    0.037030    0.632812
H      2.946126   -1.621848    0.844520
H      4.039632   -1.276196   -0.535611
H      1.396972    0.384302    1.066989
H      0.298072    0.878136   -1.743681
H     -0.996428    1.513207    0.987803
H     -2.420368    0.285853   -1.415942
H     -0.844024   -1.312455   -1.553737
H      0.648237   -2.177642    0.066354
H     -0.511902   -0.504142    2.057321
H     -2.236546   -2.323941    0.719927
H     -2.656753   -0.055264    1.408015
H     -1.332971    3.285034   -0.189745
H      0.960094    2.878356   -1.280025
