11

C      0.520720   -0.893376    0.169791
C     -0.669777   -0.114417   -0.394638
N     -1.052757    0.973137    0.502782
C      1.745901   -0.084011    0.153197
N      2.711488    0.553727    0.140267
H      0.306086   -1.213607    1.211570
H      0.689958   -1.800653   -0.447793
H     -1.527286   -0.814732   -0.499661
H     -0.429536    0.285437   -1.405997
H     -0.341850    1.735732    0.419135
H     -1.952947    1.372763    0.151347
