21

C      1.996492   -0.499899    0.712055
C      1.183031   -0.400136   -0.394388
N      1.698188    0.519629   -1.224535
C      2.815853    0.954712   -0.613503
N      3.031271    0.353270    0.576596
C     -0.102566   -1.140957   -0.629645
C     -1.345596   -0.335042   -0.195751
C     -1.354591   -0.084343    1.322136
O     -2.596841    0.432083    1.713329
N     -1.414973    0.935508   -0.923240
H      1.843720   -1.144774    1.567319
H      1.315855    0.836080   -2.143176
H      3.470460    1.709659   -1.028438
H     -0.182044   -1.382959   -1.711503
H     -0.076447   -2.109812   -0.084761
H     -2.242368   -0.946132   -0.448925
H     -0.550054    0.635937    1.592386
H     -1.172474   -1.042251    1.859527
H     -2.538244    0.578846    2.693150
H     -1.457649    0.727054   -1.947530
H     -2.321025    1.403527   -0.691103
