43

C      5.495539   -0.465623    0.680626
C      4.352972   -1.096744   -0.039346
O      4.399739   -2.322231   -0.333058
O      3.223159   -0.332432   -0.341341
C      2.082874   -0.872923   -1.002653
C      1.015249    0.212833   -1.174567
C      0.464509    0.690203    0.175445
C     -0.840320   -0.054604    0.276810
C     -1.223500   -0.248306   -1.180704
O     -0.043686   -0.305281   -1.953491
N     -2.002023   -1.484394   -1.349499
C     -3.366542   -1.494442   -1.215508
O     -3.999690   -0.429917   -0.974297
N     -4.047929   -2.665187   -1.340282
C     -3.387078   -3.826298   -1.582425
O     -4.022189   -4.908384   -1.696364
C     -2.001689   -3.810710   -1.699402
N     -1.348861   -2.629508   -1.572381
O     -1.843311    0.686099    0.974082
C     -1.817274    0.893672    2.356841
O     -0.908225    0.387048    3.068893
C     -2.903811    1.684957    3.000647
O      0.228379    2.100249    0.147696
C      1.247917    3.049149    0.275217
O      2.443287    2.691795    0.458749
C      0.906287    4.499631    0.247389
H      6.456934   -0.844771    0.274485
H      5.431614   -0.709386    1.761432
H      5.462110    0.636891    0.553578
H      2.385082   -1.250019   -2.004154
H      1.669955   -1.721231   -0.412987
H      1.474161    1.061665   -1.727531
H      1.120004    0.434102    1.038744
H     -0.677048   -1.042732    0.766216
H     -1.809657    0.629197   -1.538464
H     -5.089313   -2.672093   -1.245055
H     -1.445899   -4.720806   -1.884898
H     -2.481374    2.331905    3.798122
H     -3.650806    0.994725    3.444581
H     -3.404695    2.326617    2.245748
H     -0.018955    4.658587   -0.345027
H      0.741243    4.860013    1.283988
H      1.732861    5.078685   -0.215853
