35

C      4.043671   -1.903697    0.606630
C      2.854728   -0.978801    0.511454
C      3.042350    0.344230    0.348458
C      1.854064    1.244047    0.272633
O      2.005588    2.479682    0.081571
C      0.477529    0.690811    0.413443
C      0.303235   -0.636272    0.565024
C      1.481721   -1.521520    0.648464
O      1.305763   -2.755281    0.839322
O     -0.951445   -1.256997    0.711683
C     -2.215414   -0.947813    0.170296
C     -2.528603    0.207975   -0.596628
C     -1.540639    1.307801   -0.867583
C     -0.703396    1.616265    0.366994
C     -3.823000    0.342647   -1.136461
C     -4.806505   -0.617236   -0.893968
C     -4.505887   -1.732280   -0.110807
C     -3.223549   -1.892014    0.412708
O     -6.079767   -0.450651   -1.434370
O      4.366088    0.818933    0.259128
C      4.760395    2.177268    0.104046
H      4.750607   -1.708805   -0.227853
H      3.745265   -2.970425    0.544255
H      4.565664   -1.739440    1.572753
H     -2.078237    2.240281   -1.150269
H     -0.900689    1.030159   -1.734397
H     -1.303867    1.518154    1.298885
H     -0.381076    2.677812    0.319993
H     -4.077152    1.204524   -1.742040
H     -5.262204   -2.481457    0.086185
H     -3.002892   -2.772131    1.003973
H     -6.815531   -1.129219   -1.275819
H      4.376488    2.581437   -0.856067
H      4.398520    2.782823    0.961431
H      5.868176    2.229186    0.084317
