30

C     -2.534674   -1.945998    0.636878
O     -1.488787   -0.987963    0.507900
C     -1.515598    0.127114   -0.345805
C     -2.676671    0.430325   -1.087185
C     -2.803305    1.652988   -1.742351
C     -1.800456    2.609666   -1.628944
C     -0.626689    2.315677   -0.931338
C     -0.408144    1.022966   -0.388802
C      0.878154    0.750902    0.170890
C      1.732163    1.856528    0.418812
C      2.939463    1.689107    1.100874
C      3.352250    0.418809    1.487847
C      2.605710   -0.698154    1.120079
C      1.402331   -0.554614    0.398313
O      0.783317   -1.674588   -0.180831
C      1.218368   -3.021916   -0.026605
N      1.406216    3.085860   -0.050544
N      0.285492    3.298879   -0.733771
H     -2.723428   -2.438612   -0.340252
H     -3.459672   -1.455452    1.006628
H     -2.226620   -2.719984    1.369245
H     -3.513526   -0.253340   -1.120991
H     -3.709807    1.883068   -2.287440
H     -1.943142    3.587905   -2.071792
H      3.567898    2.544164    1.318522
H      4.286509    0.293497    2.020070
H      3.002510   -1.675322    1.357904
H      2.241038   -3.143837   -0.441638
H      0.528318   -3.689621   -0.581866
H      1.200779   -3.308055    1.046192
