20

C      1.363975    0.055195   -0.178799
C      2.041720   -1.234190   -0.545334
N      2.509928   -2.029045    0.363271
O      2.157149   -1.586651   -1.883895
N     -0.077859   -0.020288   -0.494871
C     -0.824857   -0.767356    0.542261
C     -2.167185   -1.188874    0.030827
O     -2.253638   -2.058600   -0.875416
O     -3.321271   -0.605994    0.538667
C     -0.656681    1.317510   -0.771037
C     -0.569626    2.261987    0.397776
O     -1.546054    2.391640    1.182205
O      0.592125    2.989854    0.622313
H      1.856027    0.855050   -0.775231
H      1.523882    0.303197    0.895294
H      2.440660   -1.810055    1.382341
H     -0.938130   -0.169041    1.471742
H     -0.277991   -1.693831    0.822192
H     -1.717883    1.215428   -1.084780
H     -0.134293    1.774060   -1.639527
