46

C      1.862015   -2.839850    0.559453
C      0.758875   -2.035173    0.269538
C      0.891414   -0.636430    0.226050
C      2.155644   -0.061941    0.451392
C      3.272381   -0.873009    0.737798
C      3.109766   -2.261122    0.796373
O      4.553472   -0.348904    0.977337
C      4.937707    1.018709    0.822818
C      5.066299    1.402496   -0.661030
C      6.094674    0.522806   -1.397938
N      7.429898    0.670388   -0.822887
O      5.429808    2.755679   -0.752372
C     -0.268932    0.229356   -0.093816
O     -0.073081    1.313476   -0.706310
C     -1.644460   -0.123127    0.318460
C     -2.843929    0.256182   -0.259891
N     -3.860288   -0.261911    0.464786
N     -3.362650   -0.955106    1.478125
C     -2.017893   -0.881706    1.415777
C     -5.270941   -0.115738    0.236806
C     -6.121746   -1.223193    0.382809
C     -7.499978   -1.084945    0.190679
C     -8.040431    0.162734   -0.133532
C     -7.203228    1.275072   -0.258734
C     -5.824577    1.139845   -0.067797
F     -9.377106    0.295832   -0.317241
N     -2.996519    0.927704   -1.515841
H      1.751139   -3.916014    0.593575
H     -0.192205   -2.508696    0.062264
H      2.255006    1.013668    0.416922
H      3.958842   -2.895338    1.017893
H      5.917124    1.164326    1.325774
H      4.215468    1.685163    1.340405
H      4.075752    1.256752   -1.148409
H      5.781974   -0.542764   -1.337243
H      6.116838    0.801688   -2.475284
H      8.054917   -0.027519   -1.287307
H      7.797597    1.614350   -1.082942
H      5.240291    3.042396   -1.684042
H     -1.353805   -1.342755    2.134705
H     -5.714520   -2.194304    0.634725
H     -8.148280   -1.945389    0.295455
H     -7.622393    2.244405   -0.496073
H     -5.192217    2.015512   -0.139008
H     -2.167220    1.254313   -2.056694
H     -3.930504    1.012081   -1.971676
