42

C     -0.781577    2.780416   -0.214786
C     -1.127862    1.421005    0.436902
C     -2.656723    1.401453    0.747879
C     -3.294829    0.035919    0.831408
C     -2.640870   -1.097686    0.552320
C     -1.136685   -1.118370    0.393861
C     -0.649989    0.164603   -0.386574
C      0.924259    0.117000   -0.611117
C      1.901552    0.312511    0.554536
C      3.146310   -0.456442    0.073512
O      2.809236   -1.267407   -1.033919
C      1.410991   -1.226054   -1.180141
C      0.819746   -2.468457   -0.479794
C     -0.699458   -2.410879   -0.334988
O      3.650328   -1.255076    1.110976
C      2.270938    1.772055    0.872259
C     -1.308352    0.233418   -1.807254
O     -0.588057   -1.116605    1.693510
H     -1.445771    2.999805   -1.076948
H      0.257771    2.822400   -0.583866
H     -0.913307    3.593739    0.530330
H     -0.613947    1.390523    1.420465
H     -2.841500    1.935658    1.704717
H     -3.215980    1.953249   -0.038429
H     -4.362625   -0.013942    1.022184
H     -3.193848   -2.033246    0.555951
H      1.185062    0.881303   -1.378468
H      1.524871   -0.153986    1.483671
H      3.940821    0.250733   -0.261476
H      1.171920   -1.281362   -2.264030
H      1.271050   -2.586914    0.529492
H      1.091117   -3.374618   -1.063553
H     -1.025097   -3.300170    0.248968
H     -1.181965   -2.507152   -1.329048
H      4.489738   -1.660850    0.770396
H      3.138466    1.793934    1.566149
H      1.445322    2.296139    1.388253
H      2.551091    2.325730   -0.049157
H     -1.039581   -0.629764   -2.443971
H     -2.415006    0.275992   -1.760196
H     -0.964600    1.130096   -2.362711
H     -0.902959   -1.928702    2.172690
