39

C     -7.112197    0.810136    0.440325
C     -5.659786    0.725291    0.095677
C     -4.791943    0.145121    0.932948
C     -3.339102    0.030464    0.678737
C     -2.771768    0.193737   -0.595926
C     -1.392742    0.063356   -0.736514
C     -0.582217   -0.119714    0.386085
C      0.902421   -0.094936    0.185524
C      1.786692    0.350197    1.189574
C      3.181122    0.217379    1.014874
C      3.700100   -0.217362   -0.228833
C      2.815537   -0.480577   -1.300886
C      1.415613   -0.380726   -1.100907
C      0.438233   -0.567479   -2.257556
O     -0.814097    0.075772   -2.003971
O      0.232894   -1.933557   -2.507378
C      3.352253   -0.895938   -2.625821
O      4.523022   -0.601270   -2.985152
O      5.079228   -0.411072   -0.455944
C      6.140564   -0.234186    0.476277
O      4.054023    0.502142    2.066834
O      1.263956    0.989067    2.318115
C     -1.230329   -0.388358    1.612005
O     -0.582289   -0.775696    2.619516
O     -2.553476   -0.282856    1.706554
H     -7.245677    1.373802    1.387780
H     -7.534595   -0.210497    0.554363
H     -7.660555    1.335591   -0.369295
H     -5.335195    1.166374   -0.836262
H     -5.158423   -0.235262    1.879767
H     -3.376975    0.354308   -1.476863
H      0.851683   -0.102236   -3.176299
H     -0.217419   -2.313661   -1.708661
H      2.735535   -1.449363   -3.319916
H      7.098433   -0.489110   -0.021107
H      6.194664    0.825305    0.803030
H      6.010491   -0.916191    1.342702
H      3.761731    0.641466    3.023903
H      1.820592    1.495310    2.992696
