20

C     -0.908966    0.473110    1.347954
C     -0.529908    0.458615   -0.145332
C     -1.299115   -0.657953   -0.884899
O     -2.683073   -0.435592   -0.828427
C      1.005278    0.336047   -0.395386
C      1.603100   -0.906728    0.213639
O      1.979548   -0.915902    1.416992
O      1.711094   -2.064204   -0.551333
N      1.739001    1.526818    0.047489
H     -0.421648    1.316917    1.876052
H     -0.627213   -0.480387    1.841613
H     -2.005030    0.610613    1.462232
H     -0.861290    1.427515   -0.581150
H     -0.973374   -0.714911   -1.948827
H     -1.081645   -1.641981   -0.417536
H     -2.879930    0.297085   -1.468843
H      1.159972    0.260876   -1.494950
H      2.097015   -2.913645   -0.156871
H      1.647033    1.651845    1.080431
H      1.329151    2.371862   -0.412850
