44

C      3.061729   -1.546009    1.086572
C      3.969852   -0.852792    1.910280
C      4.378142    0.448367    1.576443
C      3.845091    1.034878    0.429216
C      2.934349    0.370981   -0.369458
C      2.547806   -0.939352   -0.071110
C      2.552316    1.219038   -1.553937
C      3.446035    2.405391   -1.306469
O      3.548694    3.389280   -2.085875
N      4.189225    2.301663   -0.097444
C      1.075509    1.649725   -1.527003
C      0.159488    0.503615   -1.815532
O     -0.040393    0.142709   -3.007407
O     -0.440848   -0.175600   -0.751003
C     -1.310686   -1.292661   -0.926718
C     -1.496600   -2.046884    0.398885
C     -2.355062   -1.237884    1.383161
C     -3.637724   -0.712922    0.705650
C     -3.368091   -0.096581   -0.696744
O     -2.541617   -0.908668   -1.525412
C     -2.898606    1.371522   -0.648948
O     -3.952292    2.195302   -0.229911
O     -4.605265   -1.733560    0.632718
O     -1.595387   -0.170348    1.891125
O     -2.083350   -3.297235    0.142065
H      2.766564   -2.555759    1.340634
H      4.366960   -1.331053    2.796149
H      5.095483    0.978321    2.189440
H      1.877105   -1.485059   -0.720400
H      2.824367    0.719783   -2.509325
H      4.890085    2.978534    0.277827
H      0.818277    2.085006   -0.535820
H      0.905642    2.437408   -2.293212
H     -0.810073   -2.001947   -1.622697
H     -0.486854   -2.207924    0.846759
H     -2.639533   -1.905964    2.230492
H     -4.071924    0.075228    1.358906
H     -4.355221   -0.061216   -1.209457
H     -2.043032    1.498388    0.045717
H     -2.577541    1.681391   -1.668587
H     -3.597535    3.122263   -0.235250
H     -4.370118   -2.333795   -0.120929
H     -2.053943    0.146611    2.712828
H     -1.921028   -3.862191    0.942354
