36

C      5.487179    0.982275   -1.478235
C      4.115476    0.640128   -0.976661
C      3.949342   -0.028308    0.241464
C      2.664707   -0.333738    0.722587
C      1.544180    0.107067   -0.025584
N      1.742232    0.756893   -1.205401
C      2.979674    1.027211   -1.692662
C      0.154404   -0.046381    0.442429
N     -0.826048   -0.274012   -0.375680
C     -2.107914   -0.295072    0.338673
C     -1.652730   -0.012482    1.740704
O     -2.386233    0.025911    2.763854
N     -0.251536    0.154438    1.788143
C     -2.713558   -1.707205    0.251058
C     -3.036927    0.837129   -0.213417
C     -4.423884    0.877953    0.453135
C     -3.208257    0.763533   -1.741631
C      2.540741   -1.169037    1.939753
O      3.421941   -1.115272    2.838396
O      1.487023   -2.064280    2.081695
H      5.495947    1.046058   -2.587266
H      5.800599    1.960234   -1.057079
H      6.219687    0.204726   -1.173543
H      4.825804   -0.342553    0.796482
H      3.075143    1.555592   -2.632551
H      0.328720    0.444604    2.606114
H     -1.976486   -2.462162    0.601513
H     -2.981712   -1.959127   -0.795144
H     -3.617061   -1.794515    0.889814
H     -2.543481    1.812003    0.002671
H     -5.010543   -0.033714    0.214458
H     -4.339461    0.980574    1.552659
H     -4.993039    1.757967    0.084218
H     -3.750816   -0.157105   -2.040999
H     -3.789490    1.639873   -2.100432
H     -2.223626    0.786947   -2.253537
