13

C      0.214723   -0.898034   -0.366699
C     -1.177923   -0.274960   -0.239274
N     -1.274788    0.542440    0.965461
O     -1.060502    1.770703    0.909083
O     -1.440533   -0.060330    2.190441
C      1.263961    0.147597   -0.584321
O      1.468925    0.605347   -1.740341
O      1.986585    0.640779    0.497528
H      0.451929   -1.480408    0.549756
H      0.220114   -1.603313   -1.225743
H     -1.407809    0.338869   -1.138412
H     -1.933612   -1.087979   -0.186275
H      2.688931    1.359290    0.368796
