37

C      3.798542   -0.593160   -1.664419
C      2.605111   -0.336137   -2.370783
C      1.395805   -0.147801   -1.679177
C      1.408091   -0.221578   -0.283548
C      2.577957   -0.472856    0.395723
C      3.791674   -0.663781   -0.261257
C      2.251363   -0.484304    1.798256
O      3.056833   -0.681851    2.744844
O      0.892593   -0.241346    1.963251
C      0.258671   -0.058601    0.686345
C     -0.309795    1.348573    0.592052
C     -1.623757    1.563701    0.131664
C     -2.116986    2.865827   -0.006100
C     -1.312770    3.965108    0.319224
C     -0.010780    3.758425    0.781197
C      0.490314    2.461183    0.914913
O     -1.797794    5.264280    0.187238
O     -2.455082    0.488067   -0.182284
C     -2.068317   -0.838817    0.008531
C     -0.772764   -1.153494    0.463809
C     -0.428517   -2.504473    0.660363
C     -1.357072   -3.517371    0.408217
C     -2.640661   -3.196699   -0.048896
C     -2.991228   -1.858682   -0.248249
O     -3.573678   -4.198311   -0.307282
H      4.724509   -0.736763   -2.205814
H      2.620038   -0.283527   -3.451576
H      0.476450    0.049763   -2.214968
H      4.701477   -0.860421    0.290807
H     -3.128061    3.020894   -0.361277
H      0.616116    4.604767    1.031714
H      1.507014    2.324998    1.261039
H     -2.737420    5.447504   -0.145059
H      0.563332   -2.775039    0.999587
H     -1.075865   -4.551251    0.563055
H     -3.985055   -1.609301   -0.598515
H     -3.350289   -5.177527   -0.172625
