46

C     -4.941740    2.159994   -1.451148
O     -5.470802    0.841234   -1.358108
C     -4.700473   -0.312353   -1.140632
C     -5.349878   -1.558386   -1.064228
C     -4.607343   -2.723023   -0.846444
C     -3.220402   -2.661182   -0.703285
C     -2.556463   -1.428333   -0.777625
C     -3.299681   -0.257329   -0.996218
C     -1.059573   -1.353544   -0.608879
C     -0.662056   -0.780961    0.767568
C      0.860780   -0.510647    0.862886
C      1.287945   -1.028542    2.256364
O      0.246146   -1.889528    2.674340
C     -0.867886   -1.745209    1.878721
O     -1.955456   -2.329735    2.124793
C      1.199376    0.976427    0.639857
C      2.688363    1.200760    0.590022
C      3.408418    0.895714   -0.587079
C      4.786371    1.091076   -0.579801
C      5.441454    1.555527    0.513742
C      4.775812    1.864274    1.695724
C      3.381529    1.680904    1.731590
O      6.791713    1.648305    0.236902
C      6.997468    1.214677   -1.114999
O      5.692177    0.867943   -1.598722
O     -6.734235   -1.658981   -1.201779
H     -5.773943    2.872892   -1.622950
H     -4.233738    2.228225   -2.303958
H     -4.429192    2.433548   -0.504707
H     -5.108966   -3.680596   -0.786329
H     -2.665236   -3.574816   -0.530346
H     -2.778773    0.689423   -1.050473
H     -0.651061   -0.695630   -1.407117
H     -0.597734   -2.355922   -0.752972
H     -1.240942    0.143216    0.990683
H      1.394824   -1.121355    0.098375
H      2.248503   -1.584203    2.205233
H      1.377252   -0.199134    2.990491
H      0.754521    1.311435   -0.322828
H      0.739570    1.597969    1.439791
H      2.911433    0.517652   -1.471566
H      5.314254    2.230858    2.559663
H      2.843236    1.909808    2.642641
H      7.423741    2.040993   -1.721629
H      7.662059    0.325622   -1.135148
H     -7.321370   -0.849066   -1.360667
