20

C     -1.756943    0.037716    0.449853
C     -1.225770   -0.991774   -0.552717
C      0.265476   -1.311120   -0.315775
C      1.049515   -0.141435    0.329459
C      0.471525    1.218895   -0.097315
C     -0.997552    1.376228    0.348214
C      2.511917   -0.231605   -0.009371
O      3.346913   -0.556332    0.875550
O      2.949644    0.014801   -1.305630
H     -2.839652    0.210737    0.267869
H     -1.651268   -0.373039    1.478239
H     -1.822374   -1.926539   -0.477468
H     -1.359899   -0.590970   -1.581836
H      0.347679   -2.199728    0.348025
H      0.714180   -1.592344   -1.294451
H      0.943679   -0.218314    1.436012
H      1.074861    2.044450    0.340586
H      0.527239    1.311313   -1.205103
H     -1.518882    2.041505   -0.374252
H     -1.030290    1.877556    1.340113
