22

C     -3.221741    0.805440   -1.042090
C     -2.273898    0.228451   -0.024159
C     -0.952050    0.264824   -0.294120
C      0.137568   -0.247382    0.572558
O     -0.108305   -0.783751    1.686647
N      1.496663   -0.128060    0.130531
C      2.608927   -0.615933    0.944832
C      3.914574   -0.364859    0.259423
O      4.388184   -1.224336   -0.530906
O      4.581319    0.839705    0.459069
C     -2.834890   -0.361595    1.244746
H     -3.112354    0.264551   -2.006087
H     -2.992531    1.880526   -1.201683
H     -4.280035    0.722653   -0.718138
H     -0.640834    0.709166   -1.233097
H      1.687996    0.318652   -0.795875
H      2.487859   -1.706154    1.124995
H      2.606717   -0.094521    1.926037
H      5.457720    1.032355   -0.011050
H     -3.942218   -0.293504    1.272911
H     -2.444049    0.189878    2.125563
H     -2.564621   -1.436106    1.316165
