32

C     -4.646755    0.463438    0.393177
C     -4.188552   -0.071205    1.597857
C     -2.985011   -0.778243    1.635795
C     -2.224471   -0.949560    0.470292
C     -2.698181   -0.429520   -0.755680
C     -3.907322    0.283800   -0.778247
N     -1.983220   -0.629523   -1.981446
S     -0.669576   -1.853180    0.588040
C      0.316137   -0.426439    1.179217
C      0.809175    0.463567    0.029692
C      1.759228   -0.238501   -0.961483
C      3.062016   -0.782903   -0.352436
P      4.124087    0.526737    0.343656
O      5.509660   -0.034172    0.571023
O      4.214589    1.823984   -0.740043
O      3.490603    1.056402    1.821341
H     -5.579357    1.012078    0.365328
H     -4.765470    0.063756    2.503637
H     -2.636599   -1.184150    2.577171
H     -4.281898    0.693386   -1.707996
H     -2.329506   -0.207471   -2.871815
H     -1.128350   -1.223755   -2.032330
H     -0.289653    0.188175    1.878743
H      1.175532   -0.805702    1.767305
H     -0.069840    0.841898   -0.532797
H      1.308031    1.358958    0.454115
H      2.015383    0.479652   -1.770213
H      1.224988   -1.081052   -1.447831
H      3.633931   -1.286768   -1.160218
H      2.853747   -1.547312    0.423222
H      4.786647    2.493861   -0.287496
H      4.100003    1.779766    2.114728
