26

C     -3.813616   -1.067934    0.075919
C     -2.384133   -0.593982    0.102258
C     -2.063866    0.782568    0.030076
C     -0.715755    1.179648    0.059112
C      0.311221    0.236042    0.161886
C     -0.015549   -1.125450    0.267954
C     -1.349696   -1.534554    0.234685
O      1.637176    0.693771    0.198074
C      2.755526   -0.023465   -0.246216
O      2.622600   -1.026649   -0.999855
N      4.062087    0.430270    0.118561
C      5.268979   -0.256310   -0.324394
C     -3.138964    1.829747   -0.098887
H     -4.336502   -0.730219    0.994989
H     -3.876555   -2.175930    0.026708
H     -4.334355   -0.659858   -0.815391
H     -0.455719    2.229389   -0.005163
H      0.753579   -1.872771    0.406218
H     -1.574495   -2.590696    0.319464
H      4.152077    1.276456    0.724577
H      5.263000   -1.303812    0.043910
H      6.165835    0.260657    0.077365
H      5.318931   -0.252362   -1.433626
H     -3.881526    1.715918    0.718325
H     -3.649808    1.722716   -1.078535
H     -2.720469    2.856811   -0.035826
