39

C      5.979733    1.259277    0.648415
O      5.209399    0.083328    0.421906
C      3.817097    0.068646    0.248866
C      3.188214   -1.160656    0.034064
C      1.792614   -1.242470   -0.146983
C      1.017094   -0.059970   -0.113910
C      1.660645    1.173034    0.107122
C      3.042379    1.238238    0.285131
C     -0.493866   -0.107873   -0.301693
C     -1.236977    0.360839    0.965925
C     -2.725769    0.438055    0.733301
C     -3.231214    0.597477   -0.573061
C     -4.611099    0.692120   -0.782006
C     -5.493613    0.651098    0.306355
C     -4.990784    0.514070    1.604488
C     -3.613047    0.412900    1.819310
O     -6.869177    0.747564    0.108824
O     -2.361489    0.635224   -1.669900
C     -0.945600    0.726336   -1.513152
O      1.155066   -2.476954   -0.359186
C      1.818548   -3.735758   -0.412832
H      7.048310    0.979013    0.748119
H      5.653041    1.754846    1.586984
H      5.873509    1.956455   -0.209426
H      3.801297   -2.051237    0.011038
H      1.092936    2.093447    0.144759
H      3.498015    2.204810    0.451421
H     -0.821652   -1.151408   -0.500226
H     -1.021599   -0.350328    1.793608
H     -0.886017    1.368153    1.275868
H     -4.995036    0.801154   -1.788501
H     -5.668864    0.487645    2.448022
H     -3.237997    0.313212    2.830397
H     -7.265150    0.848217   -0.818517
H     -0.674430    1.794716   -1.377040
H     -0.454809    0.354917   -2.437791
H      2.330207   -3.939355    0.551476
H      2.551906   -3.745879   -1.246625
H      1.068181   -4.532905   -0.591130
