39

C     -2.553467    3.013497   -0.156609
C     -3.417191    1.800307   -0.499807
C     -3.629002    0.852234    0.694535
C     -2.339439    0.246640    1.277634
C     -1.582409   -0.630760    0.270550
C     -0.380760   -1.315044    0.932518
C      0.413806   -2.134779   -0.093714
C      1.610688   -2.878354    0.527997
C      2.703199   -1.961004    1.104472
C      3.213475   -0.982152    0.086677
O      3.914835   -1.397688   -0.875288
N      2.872309    0.407944    0.187417
C      3.067137    1.343605   -0.915642
C      1.972878    1.175864   -1.924462
O      0.854504    1.720754   -1.730443
O      2.161690    0.385675   -3.054488
H     -2.942447    3.524529    0.749643
H     -1.499439    2.708896    0.010818
H     -2.572425    3.731315   -1.003527
H     -2.973621    1.255235   -1.359117
H     -4.413728    2.166099   -0.829412
H     -4.154856    1.406465    1.502385
H     -4.302981    0.027089    0.376678
H     -2.624838   -0.377737    2.152612
H     -1.674992    1.052319    1.656078
H     -2.268827   -1.404289   -0.138628
H     -1.214295   -0.000764   -0.566900
H     -0.736002   -1.985130    1.745817
H      0.271269   -0.533742    1.375622
H      0.763309   -1.475825   -0.917407
H     -0.262457   -2.893070   -0.545617
H      2.065640   -3.524289   -0.254539
H      1.245285   -3.551618    1.333620
H      2.321734   -1.428366    2.000706
H      3.552148   -2.591132    1.446732
H      2.390120    0.754470    1.047120
H      4.062414    1.187668   -1.384160
H      3.042089    2.383382   -0.523727
H      3.044646   -0.078244   -3.230201
