38

C     -5.463166   -1.095058   -1.844340
C     -4.526156   -0.314876   -0.926982
C     -3.192438   -0.014697   -1.625579
C     -2.274560    0.898836   -0.793779
C     -1.822644    0.309908    0.557810
C     -1.081470   -1.038645    0.466910
C      0.170171   -1.036810   -0.433579
C      1.243435   -0.001859   -0.051470
C      1.828060   -0.237617    1.346914
C      2.968282    0.701982    1.599787
O      2.748074    1.807102    2.166158
N      4.289932    0.366597    1.157392
C      5.412442    1.283119    1.348963
C      6.673404    0.695358    0.798828
O      7.469180    0.079233    1.555614
O      6.944224    0.782484   -0.560636
H     -5.685553   -0.507467   -2.760318
H     -5.001503   -2.063527   -2.132815
H     -6.417323   -1.300109   -1.314172
H     -4.349711   -0.920426   -0.013494
H     -5.020289    0.636654   -0.633810
H     -3.400825    0.503918   -2.587069
H     -2.671238   -0.962618   -1.875259
H     -1.380997    1.155644   -1.401119
H     -2.805048    1.856596   -0.598794
H     -1.172498    1.051527    1.068218
H     -2.706886    0.184122    1.217689
H     -1.781794   -1.817854    0.098716
H     -0.795315   -1.354898    1.492357
H     -0.134314   -0.863480   -1.487442
H      0.625046   -2.051089   -0.402830
H      0.831540    1.026957   -0.122819
H      2.063229   -0.075755   -0.799936
H      1.048441   -0.071837    2.120371
H      2.187986   -1.285285    1.437295
H      4.438634   -0.548492    0.673015
H      5.201613    2.240661    0.826890
H      5.540033    1.493563    2.433313
