24

C     -2.783553   -1.227082   -0.024766
C     -2.061535   -0.165128    0.808156
C     -0.807598    0.291677    0.098309
C      0.447980   -0.202869    0.491673
C      1.619743    0.194248   -0.183178
C      1.523394    1.083708   -1.262514
C      0.272347    1.567087   -1.665795
C     -0.885528    1.170670   -0.994744
O      2.679059    1.481174   -1.932971
O      2.890958   -0.272837    0.186374
C      3.137749   -1.177293    1.258114
O     -2.908201    0.933639    1.028700
H     -3.679712   -1.590553    0.521324
H     -2.110823   -2.091992   -0.209263
H     -3.108300   -0.804804   -0.999837
H     -1.787280   -0.616211    1.790863
H      0.504998   -0.895719    1.320407
H      0.196199    2.248904   -2.503279
H     -1.844100    1.547868   -1.328938
H      2.643586    2.121911   -2.717272
H      4.227747   -1.371840    1.324345
H      2.796862   -0.734480    2.217773
H      2.615642   -2.139854    1.073425
H     -3.579636    0.649776    1.703093
