23

C     -3.314354   -0.638762    0.809797
O     -2.660375    0.591959    0.517914
C     -1.337797    0.699920    0.060051
C     -0.818265    1.979045   -0.186369
C      0.499606    2.128144   -0.638161
C      1.302784    1.006007   -0.849285
C      0.793673   -0.280672   -0.620673
C     -0.522985   -0.429516   -0.155422
C      1.669504   -1.487375   -0.816854
C      2.390131   -1.810048    0.452412
O      1.876488   -2.602692    1.286597
O      3.608430   -1.198985    0.731756
O     -1.619552    3.100164    0.023475
H     -3.362468   -1.271252   -0.101724
H     -2.775871   -1.174615    1.619823
H     -4.348640   -0.427650    1.150403
H      0.903550    3.115397   -0.823075
H      2.322110    1.139771   -1.190112
H     -0.902209   -1.424392    0.036857
H      1.058288   -2.360217   -1.135007
H      2.410887   -1.298525   -1.623258
H      4.101221   -1.393680    1.595106
H     -1.274156    4.037977   -0.144251
