25

C      2.339181   -0.316401    1.791116
C      0.951229   -0.477065    1.746377
C      0.259708   -0.374144    0.526950
C      0.985492   -0.106796   -0.645663
C      2.373526    0.053897   -0.600860
C      3.064871   -0.049204    0.617477
C      4.533985    0.121648    0.660022
O      5.156411    0.029536    1.752724
O      5.244048    0.386207   -0.508359
C     -1.209396   -0.542444    0.474315
O     -1.857160   -0.781619    1.530883
O     -1.878257   -0.442637   -0.752621
C     -3.295178   -0.536146   -0.887190
C     -3.964936    0.756656   -0.429912
O     -5.347353    0.663570   -0.630908
H      2.843360   -0.401555    2.745716
H      0.420445   -0.681920    2.667777
H      0.482136   -0.020890   -1.600489
H      2.904102    0.259147   -1.522165
H      6.249960    0.504890   -0.490356
H     -3.681933   -1.401830   -0.306064
H     -3.535074   -0.706058   -1.958277
H     -3.555888    1.608676   -1.017657
H     -3.754893    0.927184    0.648962
H     -5.728384    1.527298   -0.324662
