32

C      4.580154   -0.821919    1.357060
C      3.406117   -0.947960    0.390334
C      3.225843    0.337313   -0.430584
C      2.138486    0.203226   -1.508268
C      0.722961    0.143881   -0.915782
C     -0.336360    0.148692   -2.021847
O     -1.642303    0.029226   -1.461542
C     -2.306147    1.083626   -0.824499
O     -1.788380    2.232413   -0.766381
C     -3.625352    0.829943   -0.168106
C     -3.418869    0.317738    1.259733
C     -4.754218    0.045010    1.945621
H      4.681352   -1.759450    1.943440
H      4.411334    0.020939    2.060798
H      5.524540   -0.649896    0.797955
H      3.592759   -1.807252   -0.289927
H      2.488613   -1.156045    0.980091
H      2.984462    1.187528    0.244656
H      4.185408    0.574674   -0.940482
H      2.209526    1.088351   -2.178028
H      2.329529   -0.702087   -2.125458
H      0.563186    1.018118   -0.248694
H      0.601274   -0.783498   -0.317066
H     -0.265346    1.076250   -2.631576
H     -0.165865   -0.719224   -2.693980
H     -4.219006    1.770277   -0.151529
H     -4.185338    0.075657   -0.762349
H     -2.857761    1.073870    1.851698
H     -2.826150   -0.623248    1.238710
H     -5.356321    0.976870    2.002321
H     -4.573622   -0.324330    2.977097
H     -5.324506   -0.727232    1.386584
