8

C     -0.830965   -0.120793    0.103895
C      0.484901    0.562739   -0.077750
O      0.546295    1.820235   -0.079282
O      1.653647   -0.181092   -0.206572
H     -0.910462   -0.497721    1.144594
H     -1.665888    0.584821   -0.093043
H     -0.910753   -0.974370   -0.601177
H      1.633224   -1.193818   -0.190665
