38

C     -2.421984    1.578340   -1.156040
C     -2.162596    0.942502    0.228301
C     -3.130093   -0.236584    0.442571
C     -2.358691   -1.511207    0.088635
C     -0.927043   -1.097418   -0.297936
C     -0.759478    0.295365    0.344297
C      0.385636    1.162775   -0.246318
C      1.736771    0.717464    0.326111
C      2.126382   -0.694034   -0.167506
C      1.472709   -1.801809    0.666200
C      0.116221   -2.162953    0.078467
C     -0.111143   -3.446938   -0.257631
O      3.549889   -0.715839   -0.134203
C      4.024156    0.580054   -0.212128
O      5.239990    0.872531   -0.359703
C      2.937862    1.527322   -0.056298
C      3.050790    2.855047   -0.049314
O     -2.349404    1.941020    1.206250
H     -1.759352    2.453059   -1.321896
H     -2.264468    0.846969   -1.976181
H     -3.468753    1.946449   -1.214806
H     -3.451430   -0.293150    1.506237
H     -4.051644   -0.149720   -0.174815
H     -2.350849   -2.187736    0.972704
H     -2.850778   -2.039664   -0.757228
H     -0.891502   -0.984096   -1.404502
H     -0.560147    0.137653    1.429849
H      0.215921    2.218746    0.052797
H      0.394457    1.115577   -1.357284
H      1.690857    0.745883    1.438653
H      1.838732   -0.813542   -1.239054
H      2.152497   -2.682351    0.666581
H      1.349261   -1.499554    1.727790
H     -1.029416   -3.746262   -0.752437
H      0.619701   -4.223626   -0.053973
H      2.199856    3.483400    0.175016
H      4.000920    3.327212   -0.263577
H     -2.203837    1.539114    2.102371
