35

C      5.775520    1.234319    0.240284
C      4.447699    0.601099   -0.024324
C      4.362015   -0.564555   -0.785482
C      3.111336   -1.135270   -1.023103
O      3.050584   -2.137930   -1.781714
C      1.951248   -0.553227   -0.451467
C      0.636307   -1.091077   -0.580825
C     -0.484171   -0.341923   -0.124148
C     -1.821508   -0.790830   -0.308309
C     -2.889091   -0.019830    0.194948
C     -2.654899    1.185809    0.872713
C     -1.345718    1.625852    1.048535
C     -0.264136    0.881466    0.559469
C      1.035109    1.351735    0.763365
C      2.130526    0.659476    0.258786
O      3.344884    1.167342    0.448852
O     -3.694610    1.976503    1.386254
C     -5.078565    1.657068    1.283894
O     -2.069450   -1.991452   -0.997839
C     -3.358602   -2.543520   -1.247381
O      0.417843   -2.367192   -1.111344
H      6.215313    1.593787   -0.713609
H      6.460997    0.495149    0.705940
H      5.659979    2.096943    0.929987
H      5.256082   -1.010915   -1.205924
H     -3.904980   -0.357099    0.057699
H     -1.174928    2.558931    1.573783
H      1.203015    2.280167    1.298297
H     -5.286916    0.693100    1.794404
H     -5.379132    1.598308    0.216437
H     -5.671845    2.454634    1.776068
H     -3.242529   -3.493200   -1.808545
H     -3.874173   -2.760032   -0.287971
H     -3.963057   -1.841920   -1.860195
H      1.099851   -3.111716   -1.097535
