32

C      3.430573   -1.805388    1.228839
C      3.479585   -1.482530   -0.128137
C      2.481743   -0.686315   -0.698459
C      1.405946   -0.213686    0.084189
C      1.387084   -0.529291    1.458885
C      2.387576   -1.325845    2.022242
C      0.318213    0.688776   -0.500760
C      0.652462    2.127159   -0.165037
O      0.764965    2.583153    1.004457
N      0.851439    2.926243   -1.321541
C      0.663471    2.026233   -2.393325
O      0.760016    2.359189   -3.603248
N      0.355687    0.706937   -1.967071
C     -1.084093    0.256047   -0.064648
C     -2.059872    1.177762    0.375121
C     -3.341402    0.744169    0.727649
C     -3.681473   -0.606696    0.629063
C     -2.734823   -1.527542    0.167197
C     -1.452774   -1.099320   -0.186605
O     -4.962314   -1.022145    0.985954
H      4.205616   -2.420596    1.667346
H      4.295982   -1.845276   -0.739311
H      2.561516   -0.441775   -1.749011
H      0.594690   -0.157178    2.096368
H      2.356246   -1.567291    3.076858
H      1.096269    3.940018   -1.368332
H      0.164465   -0.103716   -2.598032
H     -1.845954    2.235169    0.444692
H     -4.074834    1.462343    1.071948
H     -2.992697   -2.575007    0.076070
H     -0.743281   -1.828873   -0.557150
H     -5.240028   -1.994726    0.923789
