19

C     -1.053599   -0.325507   -1.482099
C     -0.427186   -0.182762   -0.084770
C      1.027936   -0.720383   -0.062621
C      1.900914    0.486397    0.302099
C      0.924078    1.588418    0.457540
N     -0.292006    1.225963    0.252488
O     -1.353306    2.097575    0.346523
C     -1.298874   -0.888444    0.967594
H     -1.110756   -1.396469   -1.772984
H     -2.079921    0.100018   -1.493823
H     -0.443032    0.216036   -2.236535
H      1.340690   -1.125960   -1.050544
H      1.166215   -1.526399    0.692042
H      2.440850    0.318259    1.258386
H      2.618114    0.725113   -0.512102
H      1.195155    2.603670    0.717984
H     -2.326470   -0.465844    0.968565
H     -1.363383   -1.976295    0.750209
H     -0.865420   -0.753384    1.982045
