20

C     -0.724905   -1.967113   -0.265982
C     -1.735056   -1.198143    0.149210
C     -1.456037    0.143792    0.772745
C     -0.237450    0.823006    0.092929
C      0.920941   -0.161493   -0.012897
C      0.662222   -1.464684   -0.233799
C      2.317305    0.330841    0.007508
O      2.552868    1.563601    0.123996
O      3.383164   -0.559465   -0.100035
N     -0.592203    1.301880   -1.246596
O     -2.602347    0.949137    0.689500
H     -0.922680   -2.964878   -0.636028
H     -2.749978   -1.573564    0.102820
H     -1.208824   -0.037048    1.844960
H      0.065756    1.689505    0.723554
H      1.464745   -2.172021   -0.401153
H      4.340641   -0.228853   -0.086480
H     -1.277460    2.085814   -1.149380
H      0.258080    1.727419   -1.683127
H     -2.458781    1.712267    1.308255
