27

C     -3.606363   -1.203289    1.009385
C     -2.294342   -0.594520    0.611486
C     -2.258445    0.711652    0.093872
C     -1.036282    1.262843   -0.308472
C     -0.949704    2.566446   -0.821330
C      0.292822    3.086040   -1.214959
O      0.366211    4.256751   -1.673701
C      1.453627    2.307172   -1.100101
C      1.377522    1.005895   -0.592190
C      0.130747    0.488667   -0.196802
C      0.059428   -0.816923    0.308699
N     -1.144880   -1.330805    0.693644
C      1.236946   -1.566925    0.403719
C      2.448067   -0.987358   -0.007602
O      2.472738    0.258314   -0.482970
C      3.720755   -1.765357    0.084430
H     -4.074137   -1.682156    0.124170
H     -4.293334   -0.427491    1.409708
H     -3.455447   -1.969554    1.798686
H     -3.172559    1.288164    0.008124
H     -1.840362    3.177524   -0.915000
H      2.411388    2.711098   -1.405759
H     -1.191266   -2.309286    1.060346
H      1.216249   -2.579319    0.789486
H      3.910887   -2.051387    1.140274
H      4.573255   -1.154011   -0.279750
H      3.646480   -2.682186   -0.537394
