20

C     -3.017530    0.025104   -0.534264
C     -2.812896    0.731520    0.652189
C     -1.520832    0.892005    1.159101
C     -0.418246    0.343863    0.478861
C     -0.626598   -0.368791   -0.718432
C     -1.931025   -0.524096   -1.219301
C      0.537547   -0.941096   -1.426211
O      0.385126   -1.584016   -2.499607
C      1.893627   -0.763006   -0.878507
C      2.115208   -0.085472    0.264268
C      0.960861    0.503914    1.001643
O      1.149578    1.141437    2.073150
C      3.504110    0.066339    0.775543
O      4.477194   -0.433347    0.149321
O      3.757701    0.760954    1.952171
H     -4.019918   -0.097173   -0.923922
H     -3.657105    1.155724    1.180336
H     -1.385131    1.443583    2.080896
H     -2.110442   -1.068547   -2.137917
H      2.718773   -1.198898   -1.429318
