42

C     -4.490395    1.447026    0.004867
C     -3.796105    1.537002    1.376351
C     -2.285827    1.230429    1.252687
C     -2.047270   -0.139637    0.582755
C     -2.726238   -0.180788   -0.795411
C     -4.249944    0.090965   -0.696874
C     -4.868853    0.145294   -2.078280
O     -4.304910    0.780219   -3.009532
O     -6.102939   -0.449366   -2.315343
O     -4.874453   -0.925741    0.054118
O     -0.647340   -0.360413    0.399692
C      0.197714   -0.886325    1.386026
O     -0.269797   -1.272742    2.491353
C      1.642821   -1.007701    1.139685
C      2.202872   -0.591879   -0.004382
C      3.655943   -0.681830   -0.291572
C      4.197003    0.147957   -1.288104
C      5.562496    0.093107   -1.602348
C      6.398482   -0.803494   -0.927010
C      5.865446   -1.645520    0.056631
C      4.504664   -1.590989    0.370881
O      7.755386   -0.854927   -1.241097
O      6.094397    0.926297   -2.584995
O     -1.687566    1.248128    2.522786
O     -4.411697    0.652522    2.279334
H     -4.109022    2.273356   -0.636772
H     -5.582623    1.611726    0.139362
H     -3.917606    2.584367    1.741243
H     -1.812625    2.014424    0.614280
H     -2.475988   -0.952937    1.211044
H     -2.550091   -1.177040   -1.257908
H     -2.244551    0.578299   -1.452085
H     -4.690614   -1.794023   -0.392725
H      2.248968   -1.422775    1.933120
H      1.576484   -0.122883   -0.754640
H      3.559468    0.846174   -1.817467
H      6.504694   -2.349426    0.574389
H      4.124488   -2.278398    1.113365
H      8.384627   -1.494451   -0.769956
H      5.515311    1.585694   -3.091698
H     -1.624570    2.200260    2.797305
H     -4.220238    0.990039    3.193086
