39

C     -3.534406   -0.709368   -0.136708
C     -4.184790    0.629240   -0.525181
C     -3.438821    1.894218   -0.055646
C     -1.904672    1.760159   -0.050711
N     -1.398496    0.777424    0.928604
C     -2.263856    0.173352    1.953346
C     -3.248175   -0.859872    1.366598
C     -0.093915    0.212576    0.722936
N      0.019555   -1.099697    0.388512
C      1.223426   -1.692751    0.172867
C      2.398860   -0.922625    0.321326
N      2.278440    0.389308    0.660825
C      1.072739    0.979188    0.861307
Cl     1.030280    2.658453    1.370006
C      3.760519   -1.483455    0.170511
O      4.006159   -2.647499    0.583077
N      4.854156   -0.672868   -0.283637
C      4.838135    0.190410   -1.259737
N      3.710190    0.325379   -2.133953
N      6.003605    0.977656   -1.503293
N      1.249820   -3.058200   -0.255136
H     -4.223773   -1.526795   -0.440585
H     -2.601127   -0.861571   -0.720285
H     -5.222240    0.658925   -0.126655
H     -4.262808    0.656490   -1.634071
H     -3.804380    2.204404    0.944889
H     -3.710913    2.727104   -0.740083
H     -1.471492    2.755937    0.174401
H     -1.574066    1.474070   -1.073778
H     -1.641571   -0.322473    2.731491
H     -2.817794    0.968431    2.493891
H     -2.825885   -1.876038    1.526415
H     -4.205383   -0.814419    1.930147
H      3.693830    1.088346   -2.846190
H      2.950758   -0.388334   -2.174119
H      6.027901    1.659647   -2.293372
H      6.845773    0.882460   -0.892962
H      2.101569   -3.498443   -0.664609
H      0.362846   -3.608768   -0.277923
