38

C     -2.638014   -2.488016   -1.167094
C     -2.879497   -1.866282    0.204301
N     -2.440080   -0.463866    0.224798
C     -1.024104   -0.213739    0.281163
N     -0.347069   -0.461984    1.432303
C      0.990636   -0.247218    1.547270
C      1.696958    0.269420    0.435063
N      1.015449    0.485208   -0.722860
C     -0.317101    0.254177   -0.834126
Cl    -1.103792    0.543393   -2.375058
C      3.131692    0.618110    0.468376
O      3.668209    1.000478    1.542981
N      3.864077    0.657289   -0.766268
C      5.155597    0.593036   -0.929461
N      5.690778    0.748572   -2.243680
N      6.049491    0.320949    0.157570
N      1.639198   -0.610294    2.770474
C     -3.435669    0.602152    0.482119
C     -4.374906    0.762040   -0.719794
C     -2.796556    1.957345    0.833352
H     -3.169176   -1.906453   -1.949807
H     -1.551839   -2.505314   -1.396927
H     -3.018526   -3.530989   -1.175755
H     -3.961919   -1.945371    0.445169
H     -2.329148   -2.446765    0.976539
H      5.059859    0.931184   -3.055758
H      6.719330    0.681440   -2.409601
H      5.726763   -0.107665    1.051395
H      7.080037    0.399935    0.010687
H      2.669473   -0.755603    2.834089
H      1.063085   -0.889018    3.595547
H     -4.051357    0.302890    1.359427
H     -5.151540    1.525365   -0.499913
H     -3.810410    1.079434   -1.620189
H     -4.892735   -0.193926   -0.941656
H     -3.586642    2.701474    1.070559
H     -2.193095    2.343261   -0.015419
H     -2.147457    1.855354    1.728751
