38

C      4.946847    0.132169   -0.562140
C      4.236427    1.211122    0.254871
C      3.125292    0.470443    0.995584
C      1.884039    1.288935    1.204309
O      1.979379    2.493870    1.561648
N      0.591721    0.673427    1.133909
C      0.325219   -0.587133    0.427733
C      1.589954   -1.359819    0.157445
O      1.521312   -2.572574   -0.179773
N      2.857597   -0.698433    0.181843
C      3.908225   -0.963523   -0.784267
C     -0.389119   -0.300807   -0.904717
C     -1.736219    0.325365   -0.688505
C     -2.046197    1.679527   -0.773945
N     -3.344844    1.886945   -0.457288
C     -3.853936    0.677370   -0.164878
C     -5.157115    0.382518    0.233529
C     -5.473227   -0.961301    0.505747
C     -4.490445   -1.968126    0.377555
C     -3.182780   -1.640811   -0.024973
C     -2.900924   -0.300721   -0.290959
H      5.799880   -0.275299    0.023935
H      5.324262    0.537234   -1.526091
H      4.933740    1.711888    0.961057
H      3.808573    1.966737   -0.441701
H      3.496135    0.133351    1.988207
H     -0.225157    1.211414    1.502070
H     -0.330645   -1.217468    1.067745
H      3.494759   -0.896783   -1.814353
H      4.345494   -1.970965   -0.614415
H     -0.530074   -1.247191   -1.471184
H      0.237820    0.373414   -1.529140
H     -1.355904    2.469163   -1.040905
H     -3.843674    2.804041   -0.434081
H     -5.902103    1.161321    0.332893
H     -6.475532   -1.224851    0.817324
H     -4.744647   -2.998073    0.591406
H     -2.424134   -2.406379   -0.123315
