33

C      2.719932   -1.870228   -1.225974
C      1.328224   -1.911397   -1.253981
N      0.589551   -0.887045   -0.734498
C      1.209531    0.184830   -0.150798
C      2.612539    0.278075   -0.095091
C      3.375982   -0.775397   -0.650042
N      4.673253   -0.741754   -0.629446
C      3.231058    1.472154    0.545110
O      4.483244    1.589342    0.629788
O      2.424469    2.483031    1.062917
C     -0.882618   -0.970514   -0.753891
C     -1.425379   -1.348087    0.636417
C     -2.213382   -0.121964    1.054022
C     -2.504536    0.548942   -0.281041
O     -1.432414    0.271054   -1.151253
C     -2.704170    2.062981   -0.149973
O     -1.515701    2.683034    0.258710
O     -3.403784   -0.446022    1.725049
O     -2.225105   -2.507394    0.578150
H      3.282317   -2.693305   -1.650814
H      0.843583   -2.773894   -1.696142
H      0.608026    0.973835    0.282101
H      5.265588   -1.504526   -1.029833
H      2.830950    3.300961    1.501148
H     -1.207186   -1.727063   -1.504966
H     -0.602543   -1.530375    1.362841
H     -1.572727    0.533188    1.690517
H     -3.432499    0.115343   -0.720452
H     -3.513322    2.269077    0.586293
H     -3.014641    2.471501   -1.137559
H     -1.719866    3.651742    0.326466
H     -3.139926   -0.741067    2.635392
H     -2.968449   -2.339060   -0.059169
