31

C      4.710333   -0.788308   -0.104318
C      4.565346    0.544470   -0.497352
C      3.296671    1.128094   -0.553754
C      2.158667    0.378832   -0.215306
C      0.880916    0.963260   -0.268853
C     -0.247887    0.205290    0.069308
C     -1.663756    0.713846   -0.031245
C     -2.019757    2.067851    0.048230
C     -3.372326    2.432639    0.021075
C     -4.372103    1.455025   -0.083730
C     -4.031692    0.100185   -0.165681
C     -2.686702   -0.270136   -0.123654
C     -2.200241   -1.682523   -0.349916
C     -1.348763   -1.836119    0.930995
C     -0.089130   -1.154682    0.449604
C      1.175586   -1.737603    0.520156
C      2.306362   -0.978239    0.179971
C      3.587662   -1.548769    0.233952
O     -2.168835   -2.847943    0.423623
H      5.695999   -1.233514   -0.061929
H      5.439164    1.127432   -0.758392
H      3.205464    2.163537   -0.859748
H      0.769326    1.989945   -0.593950
H     -1.266567    2.836663    0.154931
H     -3.648018    3.477236    0.086257
H     -5.412911    1.750589   -0.110798
H     -4.804799   -0.649735   -0.274211
H     -1.671977   -1.844875   -1.319466
H     -1.781848   -1.415945    1.869832
H      1.275320   -2.765581    0.848570
H      3.720496   -2.580922    0.535797
