23

C     -2.797590    1.176867   -0.030076
C     -1.718283    1.980615   -0.440261
C     -0.461995    1.385179   -0.537433
C     -0.269114    0.059486   -0.245828
C     -1.317129   -0.762441    0.168621
C     -2.601869   -0.189660    0.275220
O     -3.687033   -0.962086    0.682107
C      1.074530   -0.199568   -0.434122
C      1.640974    1.011086   -0.822019
N      0.693830    1.974397   -0.890483
C      1.801572   -1.483708   -0.178781
C      2.132511   -1.605014    1.276127
O      1.397420   -2.292069    2.033135
O      3.226250   -0.930687    1.810888
H     -3.785094    1.612058    0.054451
H     -1.860167    3.028755   -0.669869
H     -1.149672   -1.806088    0.401659
H     -3.581609   -1.944077    0.908867
H      2.689456    1.179031   -1.031271
H      0.838107    2.975253   -1.151127
H      2.738836   -1.509873   -0.774575
H      1.173504   -2.341750   -0.501521
H      3.822565   -0.355706    1.227744
