28

C      2.663989    2.103115   -0.417549
C      2.264043    0.654359   -0.371140
C      0.955290    0.286215   -0.044727
N      0.589456   -1.031064    0.026138
C      1.523016   -2.003962   -0.236223
O      1.209223   -3.225654   -0.198273
N      2.804732   -1.662522   -0.541776
C      3.193690   -0.363158   -0.609074
O      4.391683   -0.083132   -0.886860
C     -0.813040   -1.381256    0.337683
C     -1.277617   -0.728160    1.590119
C     -2.409436   -0.118433    1.351828
C     -2.782321   -0.337750   -0.069168
O     -1.670207   -0.944679   -0.701980
C     -3.163404    0.969751   -0.772680
O     -2.095734    1.879255   -0.771636
H      1.775076    2.769363   -0.408843
H      3.238157    2.310084   -1.345329
H      3.296441    2.341116    0.463182
H      0.229796    1.062024    0.163012
H      3.505061   -2.416369   -0.729979
H     -0.946511   -2.477233    0.466548
H     -0.794834   -0.786609    2.560122
H     -3.005526    0.395314    2.099186
H     -3.648050   -1.034598   -0.109804
H     -4.025721    1.432262   -0.246451
H     -3.490745    0.751608   -1.815256
H     -1.516506    1.640114   -1.541669
