28

C     -2.672888   -1.988130    0.031680
C     -2.131347   -0.597576    0.360072
C     -1.943751    0.250918   -0.889593
C     -0.812690    1.182975   -0.491671
C     -0.177023    0.485285    0.724750
O     -0.881057   -0.709054    0.997126
N      1.252734    0.195939    0.484080
C      2.194769    0.990962    1.077456
C      3.552030    0.766838    0.862525
C      3.931891   -0.275027    0.022407
O      5.152824   -0.502961   -0.190477
N      2.981761   -1.043376   -0.570886
C      1.656048   -0.815832   -0.355909
O      0.807520   -1.542362   -0.942011
F      4.480825    1.555040    1.460278
O     -1.266278    2.476597   -0.164040
O     -3.126060    0.936865   -1.212451
H     -2.817281   -2.564429    0.969919
H     -1.961471   -2.541036   -0.618381
H     -3.651667   -1.904484   -0.486882
H     -2.841988   -0.096717    1.057477
H     -1.617664   -0.386313   -1.746056
H     -0.091212    1.271444   -1.333918
H     -0.283894    1.131718    1.626576
H      1.901287    1.809238    1.724568
H      3.273923   -1.820015   -1.207647
H     -1.929142    2.394618    0.571548
H     -2.980202    1.338876   -2.108292
