41

C      6.132743    0.336012   -0.109034
C      5.022610   -0.471558    0.481226
C      5.146320   -1.584162    1.300806
O      3.948900   -2.016965    1.644639
C      3.056733   -1.233414    1.083549
C      3.665450   -0.259301    0.354167
C      2.899227    0.766699   -0.351341
O      3.490050    1.681230   -0.987038
C      1.409795    0.692698   -0.296244
C      0.749629   -0.355521    0.415677
C      1.600803   -1.324006    1.200755
O      1.112559   -2.168102    1.996842
C     -0.679254   -0.437546    0.365765
C     -1.425595    0.612100   -0.252763
C     -0.728086    1.631594   -0.926143
C      0.656849    1.662079   -0.960120
C     -2.967962    0.632534   -0.279771
C     -3.562410   -0.432111    0.681953
C     -2.849035   -1.768061    0.554202
C     -1.397117   -1.621793    0.991222
C     -3.490247    2.012534    0.194408
C     -3.447473    0.379992   -1.737084
O     -4.848036    0.349502   -1.810094
H      7.115347   -0.120453    0.134064
H      6.102472    1.366522    0.302039
H      6.019636    0.376197   -1.212443
H      6.074020   -2.039342    1.621690
H     -1.256706    2.412278   -1.454909
H      1.142501    2.462240   -1.505153
H     -4.647851   -0.580166    0.494254
H     -3.469934   -0.089388    1.737976
H     -2.900993   -2.149621   -0.486948
H     -3.350592   -2.515144    1.207121
H     -0.887790   -2.565384    0.700968
H     -1.365985   -1.515686    2.097634
H     -3.027691    2.290044    1.166427
H     -4.593314    1.989864    0.331009
H     -3.271062    2.815624   -0.539068
H     -3.072792    1.185922   -2.406910
H     -3.033382   -0.578320   -2.120180
H     -5.072333    0.170379   -2.760142
