17

C     -1.487301    0.918232    0.575709
C     -1.033661   -0.069847   -0.502934
C      0.461611   -0.469462   -0.399432
C      1.334393    0.750755   -0.604705
O      1.661102    1.095880   -1.771639
O      1.743045    1.541988    0.468363
N      0.744788   -1.066621    0.913205
O      0.765916   -1.399206   -1.414783
H     -0.965498    1.891040    0.461967
H     -1.294388    0.510122    1.589973
H     -2.578140    1.098677    0.473499
H     -1.229992    0.376756   -1.502532
H     -1.664745   -0.981900   -0.422210
H      1.469746    1.336475    1.421436
H      0.125070   -1.897113    1.057878
H      1.729035   -1.422395    0.915202
H      0.219019   -2.213381   -1.258998
