27

C      3.460206   -0.326674    1.076494
C      2.029887   -0.178524    0.558514
C      1.962502    0.211527   -0.902711
O      2.989930    0.375825   -1.546027
C      0.630683    0.404748   -1.592316
C     -0.131402    1.557165   -0.971658
O      0.308801    2.690255   -1.097494
C     -1.434463    1.367793   -0.239189
C     -1.607896   -0.072933    0.258370
C     -1.451657   -1.076882   -0.890984
C     -0.148632   -0.893578   -1.625059
O      0.277099   -1.819314   -2.299798
C     -2.942461   -0.242806    0.930715
O     -4.011073   -0.063282    0.285552
O     -2.998011   -0.600623    2.274274
H      4.007906    0.634823    0.977438
H      3.995591   -1.118342    0.510023
H      3.438607   -0.612538    2.149273
H      1.501579   -1.145090    0.700921
H      1.513816    0.595711    1.165036
H      0.815650    0.686412   -2.653647
H     -1.460149    2.053913    0.636122
H     -2.265571    1.646685   -0.923208
H     -0.819900   -0.280131    1.014717
H     -1.489424   -2.107284   -0.473330
H     -2.283950   -0.967290   -1.620147
H     -3.887668   -0.719568    2.743875
