20

C     -1.823942    0.022701   -0.132414
C     -1.215796    1.189214    0.652461
C      0.296439    1.337911    0.382591
C      0.988614    0.010025   -0.004571
C      0.307268   -1.186536    0.674908
C     -1.169309   -1.320770    0.247633
N      2.396203    0.057666    0.386361
C      3.337599   -0.039466   -0.464506
O      4.252780   -0.133946   -1.291994
H     -1.685785    0.209426   -1.220316
H     -2.916900   -0.028498    0.062866
H     -1.736493    2.132669    0.380183
H     -1.383126    1.015701    1.738545
H      0.451926    2.069514   -0.440331
H      0.770477    1.765066    1.293992
H      0.899711   -0.126346   -1.109011
H      0.849006   -2.123513    0.419836
H      0.360982   -1.057194    1.778971
H     -1.739543   -1.785686    1.081277
H     -1.240110   -2.007938   -0.623594
