15

C     -2.153506   -0.076775    0.388795
C     -1.158286    0.110450   -0.750043
C      0.240081    0.175047   -0.221728
C      1.076309   -0.903556   -0.014483
C      2.238971   -0.375168    0.503892
C      2.037970    0.988395    0.584588
O      0.835685    1.285400    0.147297
H     -2.086569    0.772022    1.102748
H     -1.948399   -1.026636    0.927638
H     -3.184536   -0.116217   -0.021428
H     -1.250892   -0.734109   -1.466533
H     -1.390043    1.052634   -1.291181
H      0.864144   -1.946139   -0.211425
H      3.127820   -0.919522    0.793239
H      2.751251    1.714172    0.951502
