44

C      3.162552   -2.214646    0.078128
C      1.946000   -1.465559    0.657323
C      0.779960   -2.482018    0.773477
C     -0.527031   -1.873609    1.290657
C     -1.237739   -0.985798    0.225698
C     -0.909145    0.528581    0.363372
C      0.640741    0.860855    0.476800
C      1.569831   -0.208210   -0.205120
C      2.781687    0.590148   -0.722532
C      2.235698    1.946845   -1.135615
C      1.022224    2.099757   -0.298049
O      0.459346    3.176897   -0.169675
C      1.043101    1.178781    1.944542
O     -1.480055    1.194973   -0.770696
C     -2.284901    2.340172   -0.692533
O     -2.588602    2.847061    0.421353
C     -2.827349    2.937656   -1.945297
C     -2.689966   -1.345875    0.415110
C     -3.739291   -0.844641   -0.238773
C     -2.729001   -2.535955    1.232711
O     -3.760578   -3.202100    1.512309
O     -1.461908   -2.890922    1.634800
H      2.988614   -2.477794   -0.987444
H      4.082618   -1.599183    0.156180
H      3.353241   -3.149401    0.648075
H      2.240792   -1.150407    1.678988
H      0.597255   -2.971142   -0.209235
H      1.082623   -3.284149    1.482465
H     -0.346777   -1.312447    2.222651
H     -0.977567   -1.329139   -0.799360
H     -1.417163    0.876502    1.291017
H      1.074233   -0.574641   -1.131381
H      3.526206    0.728986    0.092615
H      3.270265    0.087033   -1.585545
H      1.951790    1.953327   -2.209967
H      2.972911    2.751008   -0.923398
H      0.476967    2.060766    2.315844
H      0.843795    0.358295    2.650968
H      2.126020    1.418999    2.016714
H     -3.854823    2.557118   -2.121272
H     -2.854284    4.044403   -1.859409
H     -2.183378    2.660641   -2.806104
H     -4.729371   -1.254632   -0.085533
H     -3.629544   -0.046539   -0.955453
