13

C     -2.517528    0.116713    0.132284
C     -1.094413    0.398748   -0.211084
O     -0.797840    1.468872   -0.808616
O     -0.113473   -0.547695    0.093272
P      1.545758   -0.309947   -0.289659
O      1.705605   -0.176802   -1.787155
O      2.441316   -1.638524    0.252830
O      2.105131    1.096435    0.467432
H     -2.569015   -0.617179    0.963686
H     -3.036141   -0.301352   -0.755298
H     -3.026139    1.051997    0.448028
H      2.282650   -1.665582    1.230021
H      3.074089    1.124316    0.264259
