34

C     -4.746756    3.048463   -0.425860
C     -3.809881    2.154023    0.318215
O     -4.248750    1.435277    1.256587
N     -2.413512    2.150234   -0.008396
C     -1.446848    1.295659    0.677699
C     -1.584262   -0.153588    0.205827
C     -0.572310   -1.026927    0.884827
C     -0.762010   -1.763374    2.049871
N      0.388666   -2.374569    2.412610
C      1.304014   -2.018946    1.494061
C      2.645972   -2.385293    1.456030
C      3.444282   -1.881479    0.411775
C      2.885361   -1.018744   -0.571162
C      1.514096   -0.668240   -0.496235
C      0.757506   -1.192718    0.549737
O      3.715228   -0.534455   -1.594428
C      3.285125    0.335813   -2.636125
O      4.789986   -2.244105    0.364435
H     -4.549021    2.976071   -1.515805
H     -4.596457    4.097277   -0.095777
H     -5.800578    2.754254   -0.234262
H     -2.061709    2.821483   -0.728100
H     -1.598318    1.363105    1.777421
H     -0.419928    1.657918    0.451049
H     -1.438664   -0.204476   -0.894660
H     -2.603659   -0.532440    0.432433
H     -1.687308   -1.837886    2.606254
H      0.535734   -2.985573    3.246592
H      3.064452   -3.037771    2.211844
H      1.052337   -0.012199   -1.221157
H      4.144475    0.556775   -3.301708
H      2.487149   -0.151236   -3.235494
H      2.913010    1.290152   -2.207124
H      5.412580   -1.912488   -0.362355
