24

C     -1.365470   -1.036906   -0.653767
N     -0.821821    0.144409    0.065087
C     -0.043993   -0.274404    1.267810
C      1.291742   -0.957395    0.924539
C      2.136618   -0.071375    0.012225
C      1.347060    0.329244   -1.231667
C      0.010189    0.985836   -0.844156
C     -1.975654    0.958548    0.521294
H     -1.975861   -0.724369   -1.530507
H     -2.015475   -1.645859    0.013764
H     -0.566917   -1.704810   -1.031832
H     -0.643305   -0.969497    1.898977
H      0.188454    0.611562    1.903456
H      1.853781   -1.145580    1.864785
H      1.118931   -1.944211    0.446402
H      3.053877   -0.620186   -0.291727
H      2.449278    0.841878    0.565197
H      1.178604   -0.556287   -1.879542
H      1.948359    1.054229   -1.821752
H      0.246456    1.960658   -0.357419
H     -0.548985    1.224315   -1.777511
H     -1.639173    1.866107    1.071482
H     -2.593515    1.298328   -0.340604
H     -2.633181    0.375764    1.205466
