37

C      4.450689    0.719691    1.477067
C      4.111328    1.556275    0.410173
C      3.265876    1.092543   -0.602350
C      2.754544   -0.214381   -0.553163
C      3.098771   -1.049515    0.522724
C      3.944893   -0.582008    1.533132
C      1.816380   -0.697321   -1.629133
O      0.614857    0.050423   -1.627684
C     -0.241979   -0.314875   -0.554853
C     -0.407746    0.921732    0.382700
C     -1.821230    1.522227    0.261899
C     -2.896630    0.438302    0.490306
C     -2.450901   -0.928564   -0.107833
O     -1.477755   -0.730275   -1.118059
C     -3.632507   -1.689804   -0.720490
O     -4.571561   -2.009120    0.268722
O     -3.123117    0.302036    1.870991
O     -1.992386    2.082881   -1.016307
O     -0.178470    0.552819    1.719420
H      5.104055    1.080471    2.260872
H      4.501279    2.565060    0.369065
H      3.003281    1.752001   -1.420343
H      2.707452   -2.057333    0.583794
H      4.205917   -1.227924    2.361424
H      2.312382   -0.547105   -2.611164
H      1.619240   -1.791995   -1.556973
H      0.162601   -1.167647    0.047290
H      0.324188    1.716593    0.102695
H     -1.948965    2.323386    1.028467
H     -3.834119    0.795264   -0.000604
H     -2.034549   -1.577279    0.700487
H     -4.109646   -1.073101   -1.515485
H     -3.255000   -2.628419   -1.184956
H     -5.308198   -2.485958   -0.194753
H     -4.027497   -0.091406    1.980156
H     -1.489203    2.938882   -1.025984
H      0.803727    0.453445    1.825298
