26

C      4.816816    0.522544    0.337483
C      3.377648    0.737868    0.675767
O      3.037839    1.754338    1.340135
N      2.389908   -0.198163    0.227483
C      0.971114   -0.015727    0.533111
C      0.135520   -1.163007   -0.051585
C     -1.344990   -1.085758    0.353377
C     -2.089461    0.063592   -0.342337
C     -3.584996    0.026714   -0.015890
N     -4.275029    1.118671   -0.695270
H      5.457409    1.261324    0.864524
H      4.960222    0.635061   -0.757270
H      5.123146   -0.499626    0.643196
H      2.703448   -1.023982   -0.332421
H      0.838643    0.015019    1.636578
H      0.635647    0.951915    0.104263
H      0.545302   -2.126087    0.324436
H      0.225926   -1.167649   -1.159973
H     -1.826825   -2.047743    0.071535
H     -1.428821   -0.978375    1.457224
H     -1.956783   -0.017821   -1.443549
H     -1.675388    1.037814   -0.006109
H     -3.736584    0.111809    1.083890
H     -4.013599   -0.941265   -0.357512
H     -3.987206    2.018039   -0.244944
H     -5.298904    1.010496   -0.512122
