20

C     -3.237439    0.325024   -0.459870
C     -2.755566    0.019511    0.812053
C     -1.381883   -0.122726    1.027463
C     -0.460620    0.038870   -0.030876
C     -0.970302    0.348527   -1.313048
C     -2.346375    0.489074   -1.519734
C      1.004465   -0.121123    0.237610
N      1.412990   -0.420233    1.503925
C      2.724160   -0.579324    1.818675
N      3.673981   -0.441233    0.860690
C      3.329786   -0.144151   -0.417178
C      1.988067    0.023330   -0.761228
H     -4.301593    0.434729   -0.624420
H     -3.447568   -0.107765    1.634641
H     -1.045779   -0.360181    2.028605
H     -0.328868    0.486303   -2.168195
H     -2.722515    0.726299   -2.506719
H      3.011027   -0.816290    2.833889
H      4.100051   -0.037428   -1.169465
H      1.753983    0.258785   -1.786817
