21

C     -1.167277   -1.158095   -1.032144
C     -0.234653   -0.375052   -0.337551
C      1.140129   -0.542037   -0.521771
C      2.046145    0.259152    0.190024
C      1.517053    1.220880    1.081529
O      2.277782    1.970481    1.749486
O      0.201577    1.351205    1.230868
C     -0.678708    0.606641    0.570259
C     -2.050852    0.797202    0.775976
C     -2.982989    0.010862    0.078358
C     -2.536350   -0.964002   -0.823268
F     -3.432668   -1.725490   -1.498985
O     -4.352521    0.187138    0.270952
F     -2.474292    1.744037    1.651441
C      3.506360    0.075254   -0.011622
O      4.340017    0.782510    0.615946
O      3.972432   -0.888026   -0.903102
H     -0.838140   -1.916191   -1.732869
H      1.499465   -1.292553   -1.216258
H     -4.717962    0.880255    0.913097
H      4.965450   -1.024171   -1.050367
