33

C     -1.108850    0.538271    0.818870
C     -2.316816   -0.333873    0.999793
O     -2.387459   -1.124946    1.976912
O     -3.346708   -0.298216    0.068221
C     -0.044146   -0.113056   -0.102338
C      1.133356    0.875823   -0.307841
C      2.173851    0.337397   -1.245954
O      2.047623    0.492307   -2.489174
O      3.262580   -0.367240   -0.747952
C      0.471423   -1.382580    0.543133
O      0.351353   -2.493326   -0.039568
O      1.085444   -1.333044    1.789688
O     -0.623254   -0.430115   -1.349563
N      0.000000   -0.000000   -0.000000
N      0.000000   -0.000000   -0.000000
N     -0.000000   -0.000000   -0.000000
H     -1.441732    1.505647    0.383301
H     -0.668127    0.767353    1.814554
H      0.751860    1.837202   -0.717193
H      1.613451    1.108644    0.668043
H     -0.953850    0.413755   -1.756426
H     -0.656721   -0.012796   -0.812013
H      0.440740    0.943777    0.076457
H     -0.526658   -0.210368    0.877034
H      0.742639   -0.720613   -0.141478
H     -0.633776   -0.732505   -0.390610
H     -0.356270    0.945546   -0.264247
H      0.028269   -0.083045    1.040729
H      0.961777   -0.129996   -0.385872
H     -0.506351    0.912209   -0.047913
H     -0.597469   -0.751811   -0.410638
H      0.211435   -0.228874    0.996857
H      0.892385    0.068476   -0.538305
