24

C      2.480853   -0.435081   -0.029287
C      1.007395   -0.320292   -0.441683
C      0.377115    0.996981    0.073774
C     -1.117529    1.038106   -0.303496
C     -1.813385   -0.267175    0.122371
C     -1.022559   -1.467303   -0.423437
O      0.307635   -1.444674    0.067467
O     -1.645457   -2.651613   -0.006233
O     -1.882928   -0.353684    1.524432
O     -1.748202    2.131208    0.314046
O      1.041436    2.092424   -0.503818
O      2.595998   -0.487652    1.366587
H      3.056534    0.431102   -0.425747
H      2.906523   -1.363717   -0.471479
H      0.986518   -0.325501   -1.557397
H      0.471628    1.029721    1.185774
H     -1.209909    1.127832   -1.413096
H     -2.839567   -0.293416   -0.315276
H     -1.035349   -1.439920   -1.540575
H     -1.165023   -3.394600   -0.456482
H     -2.679887    0.166228    1.807396
H     -1.561973    2.928565   -0.247282
H      0.923401    2.861014    0.113296
H      3.566732   -0.558553    1.560145
