21

C      0.402813   -1.174610   -0.881078
C     -1.092682   -0.895184   -0.652906
C     -1.319453   -0.122675    0.655222
C     -0.595964    1.245146    0.650240
C      0.534226    1.353122   -0.392774
C      1.322436    0.040211   -0.568755
C      2.216143   -0.211936    0.619920
O      1.740517   -0.627268    1.709864
O      3.577292    0.050684    0.527270
O     -2.694316    0.079388    0.857650
H      0.698262   -2.060531   -0.276115
H      0.536256   -1.469880   -1.944972
H     -1.499266   -0.308792   -1.506421
H     -1.640774   -1.861896   -0.618822
H     -0.911556   -0.731478    1.496244
H     -1.324551    2.061456    0.449547
H     -0.177102    1.434007    1.662815
H      0.088066    1.629020   -1.373926
H      1.222818    2.180078   -0.111234
H      1.991801    0.182878   -1.446581
H     -3.074966   -0.791738    1.144812
