35

C      4.347796   -1.551858   -0.682196
C      3.262342   -0.563527   -0.356440
C      1.922082   -0.860558   -0.624495
N      0.932715    0.042480   -0.347658
C      1.261975    1.257627    0.202368
O      0.366145    2.100864    0.480960
N      2.562350    1.567311    0.457022
C      3.563230    0.690057    0.186958
O      4.758399    1.012003    0.429210
C     -0.471916   -0.324743   -0.628784
C     -1.260065   -0.570296    0.673438
C     -2.445597    0.369493    0.544787
C     -2.436388    0.736300   -0.935410
O     -1.101590    0.695068   -1.373886
C     -3.041091    2.117787   -1.211265
O     -2.266272    3.122507   -0.616335
O     -3.650480   -0.254356    0.910867
O     -1.701785   -1.918145    0.736846
C     -0.756326   -2.711872    1.419388
H      3.927375   -2.548473   -0.935086
H      4.936246   -1.183850   -1.548629
H      5.023013   -1.675473    0.190771
H      1.675247   -1.823955   -1.056097
H      2.796125    2.499390    0.870165
H     -0.508740   -1.246177   -1.255926
H     -0.676972   -0.268974    1.578831
H     -2.264929    1.267653    1.182274
H     -3.020690   -0.019386   -1.510447
H     -4.081392    2.156771   -0.817965
H     -3.076865    2.280411   -2.311665
H     -2.716178    3.980487   -0.831220
H     -4.323007    0.467868    1.015526
H     -1.082391   -3.770893    1.370705
H      0.248455   -2.647020    0.948328
H     -0.700821   -2.424520    2.492363
