20

C      0.189592    1.252692    0.306729
C      1.635241    0.846713    0.617391
C      1.997302   -0.425236   -0.099797
O      3.164840   -0.778123   -0.161733
C      0.923734   -1.250866   -0.752825
C     -0.315748   -1.295924    0.150147
C     -0.811972    0.110618    0.601797
C     -2.144057    0.435129   -0.017799
O     -3.130188    0.716487    0.714860
O     -2.286525    0.440219   -1.402818
H      0.131343    1.546321   -0.765681
H     -0.076771    2.147019    0.911502
H      1.759647    0.697593    1.711500
H      2.316587    1.662163    0.291775
H      1.288469   -2.286209   -0.929837
H      0.659422   -0.800882   -1.733833
H     -0.056948   -1.889215    1.055577
H     -1.118331   -1.863568   -0.370882
H     -0.949200    0.073067    1.706706
H     -3.176437    0.662001   -1.832779
