16

C      0.467911   -0.131232   -1.035207
C      1.593178    0.085014   -0.014178
O      1.343885    1.230847    0.751730
C     -0.860012   -0.616681   -0.416177
C     -1.484539    0.439024    0.455067
O     -1.387398    0.369535    1.709350
O     -2.146350    1.521754   -0.116936
O     -0.666679   -1.797426    0.320563
H      0.807889   -0.894440   -1.768827
H      0.297784    0.809611   -1.603528
H      2.550341    0.217448   -0.566145
H      1.694393   -0.805062    0.645787
H      2.096713    1.301783    1.394419
H     -1.574475   -0.821236   -1.246843
H     -2.228829    1.613989   -1.122346
H     -0.503810   -2.522927   -0.337580
