24

C      1.677374   -0.683505    0.685179
C      0.907228    0.038998   -0.149067
C      1.538970    0.963241   -1.128662
O      0.828260    1.619787   -1.936269
N      2.964848    1.098193   -1.175241
C      3.786582    0.329040   -0.295007
O      5.040886    0.438508   -0.339574
C      3.146712   -0.586488    0.657242
O      3.841898   -1.280243    1.446071
C     -0.570093   -0.072453   -0.073298
C     -1.219997   -1.317029   -0.183520
N     -2.579528   -1.387250   -0.097122
C     -3.344477   -0.275691    0.088130
O     -4.598360   -0.381448    0.161177
C     -2.741048    0.981364    0.196317
C     -1.348798    1.078069    0.113913
O     -3.522589    2.120313    0.386019
O     -0.477721   -2.478397   -0.396659
H      1.219664   -1.344190    1.412594
H      3.405199    1.751671   -1.861454
H     -3.048225   -2.317926   -0.180192
H     -0.873961    2.047121    0.209681
H     -3.106632    3.040781    0.467336
H     -0.926192   -3.382463   -0.482870
