23

C     -3.522619    0.973410   -0.636092
C     -2.055262    0.777698   -0.837008
O     -1.412920    1.586984   -1.559715
N     -1.381850   -0.305845   -0.180765
C      0.068779   -0.497501   -0.268158
C      0.769929    0.340833    0.817264
C      2.297824    0.328871    0.663546
C      2.954570    1.191751    1.700134
O      4.169855    1.300338    1.720452
C      0.396709   -1.960241   -0.134757
O      0.105906   -2.585998    0.920588
O      1.025534   -2.625685   -1.182553
H     -3.707574    1.349037    0.391677
H     -4.051914    0.007334   -0.773193
H     -3.922336    1.706811   -1.368349
H     -1.933782   -0.897960    0.481530
H      0.421484   -0.158853   -1.267928
H      0.489633   -0.037623    1.825563
H      0.414340    1.392271    0.739737
H      2.574368    0.707240   -0.344415
H      2.681397   -0.708334    0.771777
H      2.362588    1.725016    2.438147
H      1.255341   -3.609555   -1.109608
