22

C      3.687021    0.343926   -0.745941
C      2.841903   -0.458828    0.236684
O      1.508878   -0.555816   -0.228701
C      0.697726    0.426827    0.382166
C     -0.694096    0.389826   -0.235955
O     -1.275331   -0.878366   -0.007896
C     -2.612245   -0.897037   -0.468813
C     -3.541853   -0.446098    0.613375
O     -3.741310   -1.179116    1.618548
O     -4.163225    0.795301    0.522481
H      3.631893   -0.113430   -1.756544
H      4.745783    0.349407   -0.411240
H      3.325217    1.391821   -0.800575
H      2.932246   -0.024088    1.260739
H      3.260339   -1.485901    0.293428
H      0.605128    0.229433    1.474463
H      1.119084    1.446321    0.227639
H     -0.600547    0.585025   -1.328562
H     -1.302281    1.198144    0.231054
H     -2.767308   -0.293077   -1.393689
H     -2.870937   -1.943335   -0.735473
H     -4.786084    1.119058    1.252811
