15

C      1.938177   -1.109770    0.347658
N      0.676464   -1.620418    0.370592
C     -0.077501   -0.538805    0.103984
C      0.697220    0.556320   -0.068084
N      1.983272    0.220051    0.081721
C      0.120811    1.785593   -0.353243
O      0.821119    2.818684   -0.517508
N     -1.239460    1.842270   -0.451256
C     -2.013000    0.722763   -0.274186
N     -1.433018   -0.485762    0.007005
O     -2.218991   -1.605292    0.183280
H      2.821443   -1.708991    0.524986
H      2.825805    0.832784    0.011476
H     -3.089123    0.800743   -0.358428
H     -1.813219   -2.510169    0.392002
