48

C      6.252014   -0.981418    2.166557
O      5.965391    0.423496    2.211725
C      4.929844    0.676002    1.332916
C      4.548385   -0.482417    0.738541
O      5.324877   -1.521271    1.214227
C      3.518858   -0.528037   -0.196760
C      2.864952    0.681359   -0.523734
C      3.268599    1.888953    0.103880
C      4.314887    1.890002    1.044064
C      1.724742    0.678861   -1.510514
C      0.413316    0.104798   -0.909398
C     -0.080193    0.975039    0.276012
O      0.675293    0.701599    1.424381
C     -0.665447   -0.086657   -2.033910
C     -1.579334   -1.322411   -1.805265
C     -2.427694   -1.263636   -0.559877
C     -3.685075   -0.618522   -0.584544
C     -4.422454   -0.576779    0.594835
C     -3.973059   -1.138508    1.744950
C     -2.748330   -1.793998    1.815428
C     -1.970390   -1.859389    0.645598
O     -4.904129   -0.944508    2.746864
C     -6.007353   -0.215236    2.191021
O     -5.659086   -0.002069    0.815828
C     -1.459562    1.198474   -2.357968
O     -2.227662    1.011488   -3.515271
H      6.085730   -1.438532    3.164508
H      7.294515   -1.148838    1.823537
H      3.231327   -1.467125   -0.652324
H      2.768858    2.820601   -0.129870
H      4.629499    2.804145    1.529887
H      2.038243    0.064216   -2.382596
H      1.548444    1.706552   -1.895823
H      0.658384   -0.905237   -0.511495
H      0.004232    2.054740    0.017071
H     -1.145147    0.772304    0.504723
H      0.347025    1.321094    2.126797
H     -0.119461   -0.336062   -2.971829
H     -2.242015   -1.460052   -2.687559
H     -0.944254   -2.235172   -1.772874
H     -4.071225   -0.164533   -1.488126
H     -2.405770   -2.238293    2.740560
H     -1.012603   -2.362868    0.678407
H     -6.938246   -0.816009    2.261743
H     -6.124250    0.758224    2.711806
H     -0.749719    2.037223   -2.529558
H     -2.123820    1.478053   -1.512718
H     -2.721137    1.860351   -3.659858
