18

C      1.211450   -0.982800    0.350896
C      0.621178    0.424390    0.176131
C     -0.737966    0.401196   -0.550788
C     -1.777549   -0.292953    0.285913
O     -2.251403   -1.399799   -0.086228
O     -2.206918    0.279057    1.480112
N     -1.175675    1.769519   -0.829422
C      2.568438   -0.919133    0.984955
O      2.698148   -0.518549    2.130894
H      1.303940   -1.473042   -0.642338
H      0.547541   -1.605161    0.988423
H      1.336507    1.034026   -0.419575
H      0.506641    0.912005    1.169975
H     -0.620568   -0.141103   -1.517766
H     -2.901397   -0.181150    2.056282
H     -2.078302    1.725739   -1.357317
H     -0.486167    2.211248   -1.480627
H      3.442104   -1.243488    0.429021
