22

C     -0.741521   -0.308659   -1.582149
C     -0.963658   -0.433470   -0.066329
C     -2.401106    0.001896    0.268322
C      0.070990    0.389641    0.759206
C      1.543058   -0.031627    0.489137
C      2.146429    0.663144   -0.701160
O      2.149507    1.921128   -0.761723
O      2.752078   -0.067428   -1.720051
N     -0.225414    0.246024    2.189049
H      0.186730   -0.834068   -1.882724
H     -1.573942   -0.788889   -2.139740
H     -0.680236    0.758732   -1.884574
H     -0.865686   -1.508271    0.205318
H     -2.546446    1.079295    0.037969
H     -2.625677   -0.170410    1.341829
H     -3.132744   -0.591452   -0.320862
H     -0.055774    1.465571    0.500671
H      2.176858    0.227579    1.364620
H      1.605187   -1.134419    0.366534
H      2.790439   -1.079233   -1.693393
H      0.367790    0.916865    2.730042
H      0.023137   -0.721951    2.500008
