41

C      3.649164    1.902561    0.331233
C      2.743502    0.671795    0.504423
C      3.440997   -0.634443    0.054702
C      2.477574   -1.812157    0.291334
C      1.100134   -1.521823   -0.347447
C      0.583763   -0.134535    0.103210
O      1.536848    0.866741   -0.217588
O     -0.604500    0.161823   -0.614806
C     -1.777673    0.035842    0.177234
C     -2.917019   -0.470438   -0.748667
C     -4.253747   -0.687430   -0.015930
O     -5.141830   -1.413217   -0.822762
O     -3.094121    0.404796   -1.833738
C     -2.054415    1.378824    0.910681
C     -2.383043    2.499374   -0.042709
O     -3.511549    2.961903   -0.105484
O     -3.068773    1.214194    1.869110
O      0.178687   -2.534724   -0.028605
O      3.022221   -3.020287   -0.180963
O      3.778996   -0.564809   -1.309548
O      3.858143    2.201933   -1.023691
H      3.192660    2.776308    0.851025
H      4.632493    1.713504    0.812390
H      2.533681    0.603003    1.598339
H      4.350765   -0.802446    0.680469
H      2.339058   -1.918848    1.390598
H      1.213825   -1.501604   -1.453980
H      0.425781   -0.140491    1.211227
H     -1.659993   -0.754843    0.956555
H     -2.579634   -1.462102   -1.135051
H     -4.721751    0.292793    0.211194
H     -4.089162   -1.225232    0.945859
H     -4.852862   -2.362271   -0.782562
H     -3.542890   -0.110972   -2.553726
H     -1.118923    1.670316    1.440937
H     -1.612707    2.881941   -0.704412
H     -3.009764    1.986973    2.490372
H      0.082241   -2.554067    0.959459
H      3.055137   -2.976031   -1.171964
H      4.740330   -0.322937   -1.362162
H      3.058357    2.701084   -1.334555
