46

C     -2.685898    2.301972   -0.560962
C     -2.627901    0.803772   -0.232865
C     -4.027117    0.138238   -0.294468
C     -3.911429   -1.357658    0.056031
C     -3.099933   -1.550797    1.356724
C     -1.778879   -0.749847    1.313276
O     -2.029457    0.624723    1.042920
O     -0.889157   -1.312580    0.360807
C      0.421641   -0.824127    0.563201
C      1.322382   -1.332568   -0.569354
C      2.832139   -1.079500   -0.299448
C      3.210602    0.427187   -0.198227
C      4.696284    0.636411    0.198000
C      4.981337    2.084046    0.507657
O      5.194983    2.443536    1.696571
O      4.987390    3.031884   -0.512012
O      5.582856    0.149717   -0.780475
O      2.885919    1.137122   -1.370151
O      3.595934   -1.696830   -1.305484
O      0.919251   -0.744871   -1.780160
O     -2.854199   -2.912670    1.610546
O     -5.195430   -1.909633    0.194577
O     -4.963675    0.786604    0.534563
O     -3.305119    3.014184    0.474920
H     -1.646844    2.678682   -0.694631
H     -3.238314    2.458350   -1.514888
H     -1.991955    0.348873   -1.027381
H     -4.400991    0.211824   -1.339465
H     -3.378306   -1.859468   -0.786770
H     -3.701794   -1.164324    2.207630
H     -1.344119   -0.822851    2.337761
H      0.429175    0.288836    0.560036
H      0.817669   -1.195555    1.535505
H      1.171074   -2.436987   -0.627558
H      3.083583   -1.549875    0.681054
H      2.612691    0.865843    0.628364
H      4.881949    0.052326    1.126553
H      5.168959    4.008309   -0.312808
H      5.521627    0.736966   -1.577763
H      3.303706    0.671251   -2.139323
H      3.584620   -2.672627   -1.121714
H      1.253970   -1.327841   -2.510667
H     -2.385527   -3.291997    0.822070
H     -5.096878   -2.893433    0.104844
H     -4.593615    0.820891    1.453795
H     -3.313201    3.964489    0.189168
