18

C      1.457643    0.202287    0.959801
C      0.471503    0.307897   -0.217327
C     -0.889186   -0.359862    0.107390
C     -1.870331   -0.117486   -1.009999
O     -1.910937   -0.895035   -2.000614
O     -2.703123    0.997986   -0.988150
N     -0.769225   -1.800539    0.361443
O      1.034011   -0.272104   -1.368034
O      2.602183    0.973568    0.712063
H      0.971776    0.536348    1.905185
H      1.773783   -0.853613    1.093471
H      0.272185    1.390887   -0.402339
H     -1.304266    0.118217    1.023034
H     -2.675347    1.660525   -0.222410
H     -0.311829   -1.949263    1.289636
H     -0.168296   -2.248924   -0.367609
H      1.672809    0.388836   -1.743277
H      2.346646    1.920276    0.867737
