40

C     -5.037490   -0.040009    0.032447
C     -4.012800   -0.105926    1.177364
C     -2.835049    0.874870    1.010701
N     -1.626184    0.166696    0.569056
C     -0.493591    1.096499    0.475187
C      0.793231    0.348105    0.109089
C      1.229252   -0.618871    1.224302
N      2.410477   -1.409707    0.845658
C      3.656826   -0.620161    0.798360
C      4.171271   -0.446357   -0.642397
C      5.377706    0.496295   -0.724338
N      6.549130   -0.095319   -0.082137
C     -4.475132   -0.531942   -1.305573
N     -5.547872   -0.640615   -2.289129
H     -5.904804   -0.678809    0.309710
H     -5.410874    1.001655   -0.078119
H     -3.644677   -1.148560    1.299162
H     -4.550711    0.149844    2.116786
H     -3.093776    1.692035    0.299489
H     -2.638415    1.344504    2.000605
H     -1.799687   -0.221516   -0.386485
H     -0.340677    1.621490    1.444794
H     -0.694535    1.863013   -0.307143
H      1.591067    1.101703   -0.060420
H      0.639921   -0.210872   -0.839583
H      0.399408   -1.325823    1.439873
H      1.427449   -0.058582    2.164836
H      2.228189   -1.913467   -0.054517
H      3.534495    0.377606    1.277458
H      4.423152   -1.165777    1.387984
H      4.449190   -1.437963   -1.061873
H      3.360264   -0.027088   -1.274980
H      5.605514    0.675207   -1.798509
H      5.136085    1.478972   -0.260232
H      7.384563    0.467226   -0.363849
H      6.454740    0.026637    0.952002
H     -4.008147   -1.531856   -1.166951
H     -3.703368    0.176254   -1.679264
H     -5.141432   -1.054814   -3.158823
H     -5.862706    0.325421   -2.537819
