20

C     -0.767355   -0.171352    0.709334
C      0.743309   -0.447477    0.652128
C      1.468918    0.447654   -0.360653
C      2.949941    0.230999   -0.281741
O      3.505072   -0.600608   -1.047130
O      3.715192    0.909713    0.662107
C     -1.505399   -0.663846   -0.542120
C     -2.984268   -0.480774   -0.381646
O     -3.696753   -1.439251    0.017330
O     -3.575117    0.754691   -0.629850
H     -1.179011   -0.699115    1.598041
H     -0.946196    0.917318    0.851960
H      0.922447   -1.517998    0.408432
H      1.164382   -0.257905    1.664330
H      1.247075    1.516263   -0.150788
H      1.125348    0.219083   -1.391713
H      3.291201    1.568495    1.304333
H     -1.282859   -1.739632   -0.714748
H     -1.173517   -0.094097   -1.434961
H     -3.022410    1.547839   -0.932644
