20

C      0.098706   -1.277535    0.086786
C     -1.223281   -1.531690   -0.287467
C     -2.121772   -0.471985   -0.468076
C     -1.691250    0.846872   -0.275756
C     -0.364378    1.101683    0.100354
C      0.537548    0.041825    0.295157
C      1.973875    0.326433    0.672521
C      2.847516    0.210838   -0.539532
O      3.264027   -0.914771   -0.922492
O      3.158702    1.344642   -1.279566
O      2.414760   -0.569117    1.660416
O     -2.586116    1.899108   -0.461819
O     -3.441418   -0.721233   -0.840674
H      0.780804   -2.109137    0.212816
H     -1.547896   -2.553143   -0.439996
H     -0.037904    2.125075    0.239326
H      2.069407    1.366165    1.063917
H      1.955037   -0.313426    2.502865
H     -2.304898    2.863831   -0.330990
H     -3.781470   -1.664433   -0.987792
