47

C     -0.342029   -0.671715    2.420088
C     -0.319070    0.435048    1.404553
C      0.799193    1.208132    1.079030
C      0.386045    2.047439    0.058570
C     -0.936080    1.772319   -0.185378
N     -1.372815    0.780516    0.617741
C     -2.682950    0.192328    0.608073
O     -3.687634    0.929172    0.801885
C     -2.869164   -1.255189    0.352060
C     -4.062021   -1.896175    0.732020
C     -4.242230   -3.260515    0.484681
C     -3.238501   -3.996959   -0.151132
C     -2.054020   -3.366918   -0.543033
C     -1.868532   -2.003740   -0.294863
Cl    -3.467625   -5.707994   -0.462387
C     -1.640957    2.429598   -1.196242
C     -0.961481    3.397569   -1.954908
C      0.400195    3.686476   -1.712039
C      1.090407    2.993495   -0.688019
O      1.023925    4.658246   -2.508179
C      2.386856    5.048986   -2.377196
C      2.197561    1.049860    1.603805
C      2.876739   -0.072919    0.891494
O      3.375577    0.121382   -0.250715
O      2.908095   -1.341519    1.480875
C      3.374341   -2.505214    0.803973
C      2.351391   -2.967288   -0.187588
O      2.472774   -2.666643   -1.404092
O      1.240750   -3.693384    0.230962
H      0.282926   -0.407247    3.297274
H      0.048145   -1.603622    1.962195
H     -1.374908   -0.848124    2.784281
H     -4.851000   -1.345063    1.228595
H     -5.162680   -3.743633    0.787393
H     -1.278508   -3.931712   -1.044509
H     -0.947991   -1.535022   -0.619195
H     -2.678022    2.200239   -1.402681
H     -1.489174    3.921381   -2.741702
H      2.135508    3.179442   -0.484739
H      2.570848    5.458533   -1.361237
H      3.052467    4.180055   -2.565446
H      2.611703    5.837679   -3.124210
H      2.774149    1.987912    1.462160
H      2.175047    0.843893    2.694016
H      3.540762   -3.309446    1.550594
H      4.346013   -2.300434    0.303383
H      1.105976   -3.929225    1.206891
