22

C     -0.838203    0.151453    1.536570
C     -0.784607    0.066150   -0.013341
C     -0.736685   -1.402808   -0.467696
C      0.648155   -1.986811   -0.177114
C      1.759773   -1.220319    0.009631
C      1.733812    0.306558    0.020917
C      0.437341    0.762864   -0.640384
C     -0.000664    2.181653   -0.684597
O      0.757659    3.181665   -0.779467
O     -1.385199    2.246704   -0.771879
C     -1.867428    0.961805   -0.535627
O     -3.081958    0.646287   -0.638919
H     -0.696945    1.197397    1.885707
H     -0.062358   -0.479539    2.017505
H     -1.825443   -0.205326    1.901942
H     -0.935205   -1.476121   -1.558972
H     -1.512369   -1.997892    0.060606
H      0.754004   -3.067084   -0.169511
H      2.704160   -1.714882    0.214039
H      2.600936    0.693238   -0.555632
H      1.811910    0.684596    1.061832
H      0.519314    0.470412   -1.715608
