20

C      3.716886    0.300285    0.642011
C      2.230034    0.341622    0.781112
O      1.717976    0.955765    1.755663
N      1.406078   -0.393561   -0.136811
C     -0.025739   -0.278364   -0.207135
C     -0.788049   -1.396045   -0.580749
C     -2.179863   -1.304729   -0.677694
C     -2.824865   -0.091765   -0.418352
C     -2.069897    1.034731   -0.066331
C     -0.677798    0.945522    0.032271
O     -4.212177   -0.014825   -0.518013
H      4.104274   -0.636451    1.093684
H      4.177401    1.170834    1.155532
H      3.997360    0.331957   -0.431692
H      1.870741   -1.115732   -0.733015
H     -0.302543   -2.341707   -0.787032
H     -2.757336   -2.176900   -0.956844
H     -2.559670    1.981677    0.122006
H     -0.114090    1.837703    0.269286
H     -4.708723    0.849983   -0.337898
