23

C     -2.621581    1.998271   -0.018649
O     -2.733014    0.578858   -0.042360
C     -1.643883   -0.307414   -0.022587
C     -1.895823   -1.690806   -0.049977
C     -0.831677   -2.596152   -0.031226
C      0.486171   -2.138970    0.014668
C      0.760683   -0.761576    0.042647
C     -0.310717    0.148907    0.023753
C      2.157243   -0.272565    0.091347
O      3.115819   -1.093749    0.108158
O      2.414522    1.102641    0.118777
C      3.732040    1.636864    0.165771
O     -3.199252   -2.185380   -0.095979
H     -2.058700    2.352210   -0.908090
H     -2.113044    2.326061    0.912564
H     -3.637974    2.441763   -0.042617
H     -1.027872   -3.660759   -0.052373
H      1.289591   -2.864886    0.028215
H     -0.104463    1.210095    0.045152
H      4.250005    1.290872    1.085266
H      4.304204    1.316956   -0.730752
H      3.675789    2.744614    0.180005
H     -4.008066   -1.575854   -0.111361
