32

C     -3.024802   -0.989950   -0.006515
C     -2.341205    0.196039   -0.710320
C     -3.008893    1.512624   -0.283266
C     -0.794975    0.242641   -0.503467
C     -0.357156    0.079088    0.967186
C      1.155656    0.330709    1.144392
C      2.023474   -0.065891   -0.098207
C      1.320982   -1.202746   -0.875019
C     -0.063241   -0.781382   -1.412683
C      3.410689   -0.579017    0.357307
O      2.167006    1.027612   -0.993155
O      2.852625    1.980464   -0.384073
H     -4.088870   -1.050588   -0.320000
H     -2.538873   -1.950185   -0.272894
H     -2.997317   -0.868050    1.097071
H     -2.533037    0.088081   -1.801682
H     -4.091235    1.488789   -0.533215
H     -2.554865    2.370431   -0.823479
H     -2.905751    1.679750    0.809049
H     -0.454061    1.251839   -0.829192
H     -0.914646    0.780318    1.623052
H     -0.586861   -0.954308    1.308126
H      1.482744   -0.243358    2.039683
H      1.309257    1.401173    1.398005
H      1.191812   -2.083048   -0.205648
H      1.952827   -1.530222   -1.730259
H      0.062056   -0.330457   -2.421834
H     -0.669083   -1.701054   -1.551006
H      4.059636   -0.768775   -0.524465
H      3.914076    0.164088    1.011930
H      3.311495   -1.524782    0.932809
H      3.710534    2.030166   -0.878324
