19

C     -3.464494    0.149830    0.696402
C     -3.235491   -0.086891   -0.765229
O     -4.235661   -0.154773   -1.528799
N     -1.921071   -0.244622   -1.327193
C     -0.681154   -0.056497   -0.629151
N     -0.572956    0.411822    0.634237
N      0.688567    0.518921    1.047150
C      1.585765    0.140318    0.111709
S      0.831374   -0.354545   -1.309393
S      3.319324    0.174390    0.356977
O      3.614463    0.420065    1.810158
O      3.920654    1.278361   -0.465745
N      3.999597   -1.343473   -0.114239
H     -3.101387    1.160507    0.975934
H     -4.548422    0.090957    0.932575
H     -2.939202   -0.624566    1.293236
H     -1.861153   -0.512224   -2.335500
H      3.581992   -2.071671    0.507556
H      5.019255   -1.304246    0.109313
