32

C     -4.403765    0.221097    0.807966
C     -3.341571    0.931938   -0.032924
C     -1.979033    0.204529   -0.003202
C     -0.995423    0.860023   -1.005839
C      0.182937   -0.045480   -1.414634
C      1.254470   -0.183102   -0.323169
C      2.516750   -0.863841   -0.873658
C      3.569082   -1.104740    0.216681
C      4.152105    0.182703    0.721146
O      3.771621    0.655714    1.824338
O      5.091859    0.877813   -0.034189
C     -1.419348    0.208795    1.400400
O     -1.032198    1.286413    1.926305
O     -1.356352   -0.968416    2.141325
H     -4.526166   -0.829477    0.468714
H     -5.376402    0.744892    0.695763
H     -4.124892    0.230246    1.882596
H     -3.226253    1.977577    0.328494
H     -3.715925    0.975532   -1.079123
H     -2.151780   -0.845900   -0.326535
H     -1.547333    1.095036   -1.942585
H     -0.619025    1.831136   -0.615454
H      0.653016    0.404907   -2.316796
H     -0.192042   -1.051276   -1.704747
H      1.517531    0.824256    0.066189
H      0.857880   -0.799025    0.509773
H      2.956824   -0.246394   -1.687659
H      2.236072   -1.848136   -1.308636
H      4.389791   -1.723046   -0.205894
H      3.121434   -1.678121    1.057921
H      5.407605    0.525349   -0.929866
H     -1.671469   -1.851003    1.757297
