28

C      3.652371    0.055338   -0.742963
C      3.374555   -0.139871    0.622081
C      2.053619   -0.389303    0.989623
C      1.045739   -0.445340    0.061465
C      1.288575   -0.252270   -1.298922
C      2.616097    0.001077   -1.702923
O      2.918208    0.200617   -3.047803
C     -0.122231   -0.697755    0.755652
C      0.244280   -0.768000    2.096378
N      1.577514   -0.585417    2.231499
C     -1.518435   -0.780019    0.208932
C     -2.226157    0.583337    0.278282
C     -3.664753    0.446768   -0.144732
O     -4.589095    0.742676    0.659094
O     -3.977800   -0.003721   -1.424295
N     -1.534818    1.566919   -0.559136
H      4.669319    0.251100   -1.057911
H      4.162528   -0.094658    1.362693
H      0.485039   -0.294709   -2.022460
H      2.199533    0.169049   -3.761495
H     -0.430146   -0.931788    2.926800
H      2.120840   -0.583796    3.123273
H     -1.490683   -1.148826   -0.839257
H     -2.088192   -1.523700    0.808268
H     -2.197711    0.937447    1.334074
H     -4.941858   -0.098955   -1.720230
H     -1.617341    1.290837   -1.565187
H     -2.008998    2.492963   -0.448619
