44

C      0.274990   -2.637054    4.007008
C      0.123282   -1.670504    2.859648
C     -0.093271   -0.353964    3.104853
C     -0.266091    0.590618    1.953578
O     -0.543180    1.804966    2.133758
C     -0.132414    0.072407    0.579351
C      0.038632   -1.213883    0.353830
C      0.154824   -2.176980    1.459066
O      0.258007   -3.409118    1.215773
N      0.053754   -1.539330   -1.031179
C      1.063921   -2.393722   -1.632238
C      1.765358   -1.510432   -2.659775
C      1.107274   -0.202842   -2.695381
C     -0.135749   -0.299054   -1.781410
C     -0.302788    0.832280   -0.703630
C      0.652151    2.040996   -0.813538
O      0.595157    2.624538   -2.114605
C     -0.490574    3.374805   -2.578247
O     -1.464281    3.638209   -1.821879
N     -0.490441    3.852041   -3.920577
O     -1.276140   -0.352220   -2.637036
C     -2.377670   -1.031146   -2.063807
N      2.448265   -0.338715   -2.074179
O     -0.149568    0.069916    4.446466
C     -0.339474    1.408805    4.888656
H      0.657565   -3.621408    3.666499
H     -0.709602   -2.789281    4.496966
H      0.997014   -2.240935    4.752478
H      1.796363   -2.761508   -0.881419
H      0.573314   -3.252176   -2.136314
H      2.228607   -1.889291   -3.594678
H      1.093385    0.288785   -3.691112
H     -1.342229    1.224062   -0.723816
H      1.696756    1.742050   -0.600329
H      0.384629    2.809596   -0.057391
H      0.311496    3.636931   -4.553257
H     -1.291410    4.415360   -4.283051
H     -3.282116   -0.803844   -2.664037
H     -2.582391   -0.711759   -1.019320
H     -2.217339   -2.129864   -2.104191
H      2.377924   -0.369111   -1.031909
H     -1.333686    1.782235    4.565294
H      0.471861    2.060180    4.500897
H     -0.304113    1.429359    5.997073
