50

C     -0.049653   -1.216504   -2.351346
N      0.049171   -1.203555   -0.881123
C      0.937722   -2.268581   -0.372226
C      2.403993   -2.040136   -0.752085
C      2.836103   -0.616259   -0.533271
C      4.206874   -0.315064   -0.549083
C      4.653050    1.013991   -0.429740
C      3.712997    2.043798   -0.308046
C      2.344185    1.750544   -0.304783
C      1.892955    0.425642   -0.419768
C      0.400825    0.142586   -0.362834
C     -0.125888    0.326287    1.076740
C     -1.610967    0.077388    1.155235
C     -2.513920    1.067038    0.739557
C     -3.902213    0.830753    0.773348
C     -4.384612   -0.408520    1.223001
C     -3.474465   -1.401669    1.631844
C     -2.100449   -1.159965    1.593987
O     -5.773036   -0.615282    1.246622
C     -6.401956   -1.818820    1.675031
O     -4.832815    1.800153    0.366543
C     -4.490239    3.095207   -0.116300
O      4.148587    3.362792   -0.190529
O      6.016215    1.349412   -0.432564
C      7.078185    0.408033   -0.549227
H     -0.892149   -0.568971   -2.675012
H     -0.265541   -2.242309   -2.719810
H      0.885649   -0.846803   -2.824683
H      0.606983   -3.257729   -0.757880
H      0.853802   -2.331156    0.732883
H      2.556015   -2.300321   -1.821461
H      3.038221   -2.723468   -0.146167
H      4.918619   -1.122213   -0.662277
H      1.628515    2.558104   -0.208587
H     -0.109481    0.916417   -0.983122
H      0.077720    1.365226    1.417473
H      0.417039   -0.340166    1.780775
H     -2.126533    2.014314    0.388621
H     -3.819030   -2.366375    1.978083
H     -1.417858   -1.940738    1.905384
H     -6.082409   -2.666307    1.032486
H     -6.148002   -2.025650    2.736130
H     -7.501788   -1.703327    1.589229
H     -3.938813    3.660422    0.664517
H     -3.872521    3.009102   -1.035158
H     -5.419913    3.647140   -0.364056
H      3.494794    4.131832   -0.100738
H      7.004092   -0.133364   -1.515977
H      7.045549   -0.311295    0.296203
H      8.046388    0.948367   -0.518443
