44

C      4.884608   -2.587652   -0.772082
C      3.659067   -2.192105   -0.021361
O      2.712305   -3.015844    0.102945
O      3.563178   -0.900647    0.509721
C      2.396549   -0.399821    1.161079
C      1.390617    0.137077    0.134068
C      0.181191    0.764544    0.806487
C     -0.887765    0.613779   -0.250598
C     -0.410637   -0.612304   -1.037958
O      0.931790   -0.901976   -0.697644
N     -1.275773   -1.778940   -0.758439
C     -1.044921   -2.549668    0.349666
C     -1.867886   -3.631920    0.647298
C     -2.941074   -3.904098   -0.193578
O     -3.701962   -4.878183    0.050728
N     -3.169599   -3.113809   -1.274444
C     -2.359416   -2.055823   -1.556983
O     -2.621806   -1.332643   -2.557479
O     -0.917442    1.750118   -1.120940
C     -1.792135    2.830829   -0.962149
O     -2.709592    2.800996   -0.097841
C     -1.670498    4.009799   -1.865399
O      0.439810    2.128100    1.144870
C     -0.347645    2.855930    2.042552
O     -1.322929    2.315396    2.631610
C     -0.063269    4.302668    2.259469
H      4.690487   -2.512623   -1.862163
H      5.164398   -3.632177   -0.519751
H      5.727481   -1.916181   -0.505301
H      1.938007   -1.188066    1.797904
H      2.705726    0.433876    1.827027
H      1.901423    0.896758   -0.501333
H     -0.100946    0.180714    1.713183
H     -1.887102    0.438364    0.208635
H     -0.422521   -0.387428   -2.128162
H     -0.220644   -2.332388    1.016805
H     -1.675009   -4.243087    1.520476
H     -3.985567   -3.317862   -1.896151
H     -0.641882    4.065277   -2.279313
H     -1.880278    4.943476   -1.302000
H     -2.395167    3.912898   -2.700224
H     -0.679504    4.907404    1.562070
H     -0.304395    4.587879    3.305225
H      1.010725    4.509364    2.069474
