12

C      0.901144    0.003341   -0.363556
O      0.436329    0.345749   -1.483980
C      2.345195    0.132638   -0.120375
O      2.839056   -0.196166    0.990186
O      3.176572    0.625958   -1.118380
N      0.037807   -0.544577    0.645936
C     -1.394885   -0.483076    0.593008
O     -2.072076   -1.356984    1.196529
N     -2.070002    0.577156   -0.087662
H      0.467546   -1.092031    1.425383
H     -1.554941    1.416445   -0.432060
H     -3.111745    0.571547   -0.158632
