37

C     -5.628157   -0.508264    0.027102
C     -4.354883   -1.318579    0.269927
C     -3.127024   -0.727355   -0.440430
C     -2.624136    0.563145    0.229289
C     -1.405015    1.164616   -0.488700
C     -0.120983    0.351416   -0.263411
C      1.096662    1.074011   -0.859530
C      2.370410    0.207553   -0.868167
C      2.889968   -0.206478    0.532739
C      3.275987    1.008378    1.393807
C      4.060313   -1.210920    0.421450
C      5.276265   -0.637718   -0.246520
O      5.429343   -0.751475   -1.491187
O      6.228966    0.040110    0.503685
H     -5.802989   -0.374636   -1.061618
H     -6.496437   -1.048877    0.459320
H     -5.563853    0.485087    0.516696
H     -4.521364   -2.347694   -0.116235
H     -4.165027   -1.397410    1.362499
H     -2.323624   -1.492733   -0.407910
H     -3.366940   -0.534357   -1.509051
H     -2.375045    0.367017    1.295202
H     -3.432325    1.324044    0.207243
H     -1.249137    2.193104   -0.094637
H     -1.614183    1.250258   -1.577710
H     -0.219973   -0.645493   -0.742387
H      0.027932    0.213607    0.828489
H      1.279231    2.024849   -0.315826
H      0.870279    1.343729   -1.914645
H      3.162935    0.777259   -1.400027
H      2.168426   -0.706539   -1.468915
H      2.078971   -0.747853    1.064496
H      3.968116    1.680460    0.843446
H      2.371015    1.582273    1.681932
H      3.768567    0.676162    2.332430
H      4.343715   -1.561015    1.437814
H      3.723991   -2.109681   -0.140660
