20

C     -0.141246    0.627991    0.188801
C      0.067398    1.562547    1.349565
O      0.500330    1.119001    2.446285
O     -0.253230    2.912826    1.240266
N      1.015160   -0.258920    0.045408
C      2.238936    0.170735   -0.565760
O      2.342120    1.334609   -1.038750
N      3.350408   -0.720577   -0.640796
N     -1.354697   -0.166714    0.394235
C     -1.953461   -0.922943   -0.666401
O     -1.461572   -0.894736   -1.826731
N     -3.112831   -1.714798   -0.412505
H     -0.264458    1.228643   -0.739447
H     -0.623326    3.298990    0.380119
H      0.977699   -1.212749    0.471609
H      4.244487   -0.413050   -1.083899
H      3.282213   -1.688199   -0.254924
H     -1.767633   -0.244800    1.351845
H     -3.552522   -2.268175   -1.181102
H     -3.533774   -1.749681    0.542183
