60

C      8.871181    1.480039    1.315874
C      7.880833    0.632490    0.521995
C      8.611711   -0.378839   -0.373759
C      7.665700   -1.407873   -1.020150
C      6.885335   -0.866271   -2.232132
C      5.739599    0.027678   -1.842494
C      4.669241   -0.442040   -1.186956
C      3.540852    0.476625   -0.806706
C      2.467254   -0.260895   -0.057443
C      1.658603   -1.136466   -0.673940
C      0.584174   -1.875107    0.074692
C     -0.492911   -0.938162    0.545803
C     -1.312736   -0.320982   -0.318546
C     -2.386638    0.618420    0.154386
C     -3.472143   -0.123426    0.882989
C     -4.310317   -0.948565    0.237595
C     -5.400502   -1.692864    0.961857
C     -6.505054   -0.757736    1.476494
C     -7.274707   -0.083932    0.330536
C     -8.381363    0.830554    0.875889
C     -9.201878    1.481332   -0.245088
C     -8.389154    2.472270   -1.026693
O     -7.953767    2.166557   -2.168170
O     -8.088042    3.721332   -0.490751
H      8.316837    2.211615    1.941062
H      9.483557    0.836407    1.982915
H      9.541651    2.037117    0.626627
H      7.263730    1.314916   -0.096827
H      7.215359    0.098398    1.234824
H      9.341775   -0.940301    0.250161
H      9.189216    0.157191   -1.158622
H      8.292040   -2.251993   -1.382810
H      6.975734   -1.833979   -0.259754
H      7.573911   -0.310415   -2.904639
H      6.481548   -1.723194   -2.814575
H      5.780096    1.075742   -2.127446
H      4.621521   -1.495861   -0.921739
H      3.107947    0.945309   -1.717299
H      3.939873    1.284185   -0.155615
H      2.341649   -0.062488    1.003789
H      1.783792   -1.334394   -1.735169
H      1.035210   -2.392816    0.948489
H      0.136573   -2.650001   -0.584221
H     -0.608646   -0.773185    1.613886
H     -1.197809   -0.486354   -1.386444
H     -2.824789    1.152894   -0.715826
H     -1.938923    1.380177    0.828521
H     -3.576776    0.028180    1.953795
H     -4.195799   -1.106735   -0.831607
H     -4.957173   -2.245040    1.818693
H     -5.845417   -2.445682    0.275855
H     -6.064896    0.016166    2.143160
H     -7.215133   -1.360932    2.083793
H     -6.569347    0.518709   -0.281899
H     -7.727577   -0.866635   -0.317875
H     -9.071126    0.227889    1.506318
H     -7.936193    1.620010    1.520613
H    -10.068410    2.012056    0.204876
H     -9.607366    0.698101   -0.922572
H     -8.421906    3.990802    0.426315
