27

C     -3.080690   -0.070645    1.208798
C     -1.592321   -0.426666    1.223470
C     -0.786607    0.250459    0.091267
C      0.662197   -0.165579    0.196242
C      1.581263    0.122391    1.208988
C      2.892091   -0.366801    1.084596
C      3.264935   -1.126513   -0.041887
C      2.330173   -1.401523   -1.053214
C      1.033814   -0.909585   -0.907191
N     -0.028312   -1.064540   -1.830833
C     -1.123263   -0.356205   -1.259729
O     -2.228695   -0.226242   -1.849070
O     -0.961466    1.666022    0.158602
C     -0.308598    2.369661   -0.883024
H     -3.573613   -0.518847    2.097142
H     -3.223855    1.029597    1.249361
H     -3.575526   -0.475704    0.302962
H     -1.176908   -0.107856    2.204587
H     -1.487898   -1.533040    1.160894
H      1.292015    0.712300    2.068831
H      3.620201   -0.156496    1.857124
H      4.277929   -1.496959   -0.130303
H      2.610658   -1.978127   -1.925006
H      0.000886   -1.545597   -2.757023
H      0.781998    2.161858   -0.911585
H     -0.426138    3.456387   -0.695370
H     -0.774269    2.158249   -1.868630
