17

C     -0.427294    0.323326   -0.577213
C     -1.222366    0.714172    0.634604
O     -0.888113    1.615505    1.447786
N     -2.419443   -0.038397    0.764012
C     -2.399586   -0.899488   -0.356918
O     -3.308187   -1.734091   -0.606262
N     -1.251074   -0.725062   -1.174551
N      0.874998   -0.216456   -0.188972
C      2.012855    0.624618    0.040526
O      1.934468    1.869209   -0.143281
N      3.244663    0.054385    0.479862
H     -0.323449    1.172720   -1.286442
H     -3.150526    0.036879    1.505526
H     -1.039393   -1.247396   -2.053607
H      0.957923   -1.237538    0.019235
H      3.327762   -0.974414    0.636430
H      4.076761    0.662026    0.649228
