36

C     -2.570583    3.282266   -0.435311
O     -3.222908    2.059329   -0.108540
C     -2.583142    0.812311   -0.018351
C     -3.360411   -0.308050    0.312740
C     -2.751083   -1.571467    0.422540
C     -1.380117   -1.718971    0.197458
C     -0.592843   -0.602220   -0.154451
C     -1.200511    0.663405   -0.246471
C      0.787803   -0.809050   -0.371738
N      1.301572   -2.061579   -0.229131
C      0.523344   -3.116269    0.119992
N     -0.805422   -2.942617    0.325860
N      1.651280    0.259352   -0.797683
C      3.046022    0.333127   -0.454058
C      3.534838   -0.217697    0.745807
C      4.893012   -0.115883    1.068112
C      5.769580    0.545914    0.202777
C      5.288658    1.112027   -0.980283
C      3.932572    1.012180   -1.304969
Cl     5.494090   -0.809277    2.563156
O     -4.735416   -0.123525    0.529437
C     -5.645786   -1.163601    0.871739
H     -2.113422    3.213593   -1.445043
H     -1.793235    3.515048    0.322811
H     -3.318197    4.101633   -0.439451
H     -3.333222   -2.444754    0.685894
H     -0.606105    1.534150   -0.477208
H      0.962286   -4.098537    0.227083
H      1.284420    0.943848   -1.496489
H      2.864047   -0.707872    1.439327
H      6.820580    0.627870    0.449013
H      5.966915    1.630198   -1.645852
H      3.573170    1.456815   -2.224519
H     -5.667602   -1.931396    0.069723
H     -5.351466   -1.626300    1.837388
H     -6.662719   -0.734000    0.979532
