17

C      0.038159    1.821992   -0.699131
N      0.018909    0.389160   -0.379522
C      1.268954   -0.380222   -0.455709
C      1.863337   -0.549225    0.907617
O      2.261880   -1.680899    1.289090
O      2.018549    0.550980    1.741622
C     -1.229906   -0.232311    0.008339
N     -2.333646    0.445061   -0.066649
N     -1.272869   -1.586822    0.479635
H      1.066388    2.181057   -0.916392
H     -0.596924    2.016678   -1.588992
H     -0.349830    2.403774    0.163706
H      1.084816   -1.364209   -0.938393
H      2.013755    0.139606   -1.095401
H     -3.254270    0.033343    0.205083
H     -0.412481   -2.159064    0.613264
H     -2.184823   -2.028899    0.731833
