23

C     -1.927431   -0.366915   -0.947997
C     -1.093499    0.476834    0.037724
C      0.234990   -0.243914    0.399378
C      1.184114   -0.441501   -0.794998
C      2.477047   -1.048001   -0.339009
O      2.628830   -2.298381   -0.370729
N      3.521384   -0.220890    0.173629
C     -1.898874    0.681020    1.315508
O     -2.144212    1.842571    1.738909
O     -2.367692   -0.407161    2.050307
N     -0.790986    1.770913   -0.595100
H     -1.457231   -0.375838   -1.953826
H     -2.026480   -1.416537   -0.598907
H     -2.945832    0.064109   -1.061199
H      0.763692    0.353152    1.176617
H      0.016214   -1.239887    0.844053
H      0.719522   -1.113409   -1.547348
H      1.397661    0.531336   -1.286611
H      4.416145   -0.645677    0.503980
H      3.401044    0.814815    0.229710
H     -2.192510   -1.362510    1.765765
H     -0.234257    2.365300    0.062595
H     -1.681639    2.280570   -0.802451
