21

C     -1.084193   -0.134508   -0.290840
C     -2.119120    0.027498    0.831391
C     -1.836199    1.224604    1.691492
O     -1.888667    2.350589    1.222722
C      0.305708   -0.514211    0.257007
C      1.395478   -0.644614   -0.826587
C      1.639365    0.666236   -1.540587
O      1.092959    0.906611   -2.650157
O      2.436083    1.644559   -0.952731
N      1.091056   -1.736498   -1.757901
H     -1.444675   -0.937548   -0.967757
H     -1.027761    0.807228   -0.878108
H     -2.134278   -0.886670    1.463510
H     -3.128998    0.143462    0.382268
H     -1.594310    1.091955    2.740894
H      0.634996    0.250719    0.994003
H      0.228391   -1.482123    0.799391
H      2.338181   -0.911526   -0.298827
H      2.871426    1.494372   -0.050492
H      0.298992   -1.468553   -2.385306
H      1.925567   -1.891580   -2.369630
