47

C      3.286279   -0.705248    0.872706
C      3.793228    0.743566    0.728704
C      2.642974    1.757031    0.470630
C      1.648459    1.299258   -0.621133
C      1.146884   -0.149441   -0.394205
C      2.318518   -1.144936   -0.245266
N      3.027094   -1.320734   -1.515790
O      0.358925   -0.203207    0.787434
C     -1.023915   -0.117121    0.497091
C     -1.796427    0.216138    1.796925
C     -3.305306   -0.130090    1.678957
C     -3.721244   -0.242524    0.203970
C     -2.820136   -1.300846   -0.498588
O     -1.471971   -1.353247   -0.033844
C     -2.861139   -1.206003   -2.035293
N     -2.138315   -0.034954   -2.526245
O     -5.066634   -0.637955    0.108258
O     -4.078539    0.856042    2.312701
O     -1.233144   -0.435171    2.909671
O      2.232833    1.428370   -1.891887
O      1.933261    1.974969    1.664911
N      4.860116    0.833987   -0.274116
H      2.758189   -0.796153    1.847758
H      4.152034   -1.401510    0.919934
H      4.257371    1.007805    1.706172
H      3.083838    2.726878    0.138297
H      0.772464    1.987948   -0.573797
H      0.566993   -0.465608   -1.295919
H      1.890490   -2.130836    0.050199
H      2.358637   -1.715534   -2.216854
H      3.766097   -2.049345   -1.384696
H     -1.206531    0.714078   -0.225344
H     -1.689268    1.311084    1.964006
H     -3.507074   -1.118440    2.157152
H     -3.587694    0.752966   -0.279886
H     -3.259344   -2.291907   -0.246553
H     -2.387867   -2.122707   -2.452433
H     -3.915528   -1.182534   -2.391525
H     -2.760174    0.800504   -2.437895
H     -1.975230   -0.166071   -3.550743
H     -5.618870    0.175004    0.248997
H     -3.954405    0.729917    3.289740
H     -1.238011   -1.410092    2.719788
H      1.494031    1.402398   -2.554968
H      2.486249    2.579125    2.226436
H      4.472484    0.759491   -1.238248
H      5.309316    1.775651   -0.198635
