38

C      0.736346    3.273045    0.963314
C     -0.390166    2.348174    1.414066
C     -1.056690    1.691754    0.226629
C     -0.688841    0.397584   -0.219291
C     -1.306919   -0.149915   -1.371022
C     -2.291193    0.591398   -2.043584
C     -2.647123    1.863769   -1.601984
C     -2.031529    2.413534   -0.479808
C     -0.972162   -1.533529   -1.878485
C     -1.949232   -2.569830   -1.332872
N      0.306029   -0.357953    0.497058
C      1.712040   -0.227748    0.095433
O      2.244916   -1.505430   -0.183918
C      3.614614   -1.384978   -0.493593
C     -0.091788   -1.122601    1.657957
O     -1.313839   -1.187961    1.967133
C      0.910791   -1.891521    2.478010
Cl     0.286728   -2.271299    4.107197
H      0.335496    4.083433    0.317848
H      1.504257    2.704801    0.398402
H      1.217513    3.733093    1.851900
H     -1.138885    2.941849    1.982546
H      0.016565    1.595881    2.120470
H     -2.784845    0.180972   -2.916106
H     -3.402281    2.427979   -2.133987
H     -2.314794    3.408809   -0.159472
H     -1.017700   -1.546063   -2.989389
H      0.061044   -1.825429   -1.604601
H     -2.988620   -2.317665   -1.633184
H     -1.889132   -2.615523   -0.226254
H     -1.695103   -3.570526   -1.741289
H      1.784222    0.417025   -0.811701
H      2.270842    0.274694    0.917499
H      4.189149   -0.990417    0.373786
H      3.771878   -0.743866   -1.389534
H      4.013260   -2.393069   -0.728636
H      1.839602   -1.300874    2.609879
H      1.155550   -2.841596    1.959586
