39

C      2.773958    1.994468    1.382540
C      2.399691    0.946083    0.364409
C      2.832188   -0.319495    0.580292
C      2.552296   -1.534459   -0.273593
C      1.457706   -2.420581    0.342509
C      0.082453   -2.008276   -0.128490
C     -0.515146   -2.711038   -1.108371
C     -0.526690   -0.739629    0.449995
C     -2.017569   -0.782373    0.806191
C     -2.270323    0.425994   -0.115891
C     -0.792010    0.361889   -0.584490
C      0.077231    1.623460   -0.406051
C      1.543228    1.378312   -0.814489
C     -2.679785    1.682978    0.680573
C     -3.278028    0.137329   -1.242726
H      2.365380    1.715743    2.377125
H      2.368062    2.990757    1.106662
H      3.879486    2.076147    1.451082
H      3.413883   -0.512376    1.479141
H      3.492400   -2.126533   -0.301702
H      2.327451   -1.293912   -1.330666
H      1.499582   -2.385471    1.453457
H      1.657834   -3.479014    0.062998
H     -0.040123   -3.587939   -1.537502
H     -1.479328   -2.426544   -1.506276
H      0.053375   -0.364812    1.323205
H     -2.194054   -0.575012    1.884956
H     -2.533395   -1.710139    0.476417
H     -0.714245   -0.009481   -1.632094
H      0.032502    2.008835    0.634172
H     -0.340350    2.412828   -1.067826
H      1.959433    2.337211   -1.193046
H      1.603452    0.689268   -1.677889
H     -3.722390    1.574673    1.048321
H     -2.029409    1.837231    1.567197
H     -2.628973    2.582721    0.031712
H     -3.308275    0.994452   -1.948451
H     -4.293420   -0.011449   -0.817667
H     -3.008076   -0.771847   -1.815733
