16

C      0.905477    0.084113   -0.251933
C      1.946461    0.892044   -0.027166
C      3.326781    0.499319   -0.351013
O      4.270770    1.298641   -0.118632
O      3.606622   -0.742581   -0.910266
C     -0.469774    0.524213    0.067480
C     -1.557994   -0.272445    0.015402
C     -2.904901    0.295389    0.265367
O     -3.061391    1.527178    0.481956
O     -4.020838   -0.532673    0.263269
N     -1.450939   -1.678490   -0.259303
H      1.080165   -0.882456   -0.702082
H      1.784961    1.870924    0.410236
H     -0.597399    1.567550    0.334368
H     -0.551899   -2.200699   -0.187092
H     -2.306101   -2.250026   -0.437368
