23

C     -2.601149    0.412566   -0.829136
C     -1.660633   -0.793597   -0.956735
C     -1.358284   -1.397389    0.421563
C     -0.372911   -0.446293   -1.736290
C      0.470177    0.599637   -1.059914
O      0.268121    1.818653   -1.312420
N      1.481355    0.215731   -0.118976
C      2.272147    1.213833    0.598494
C      3.228584    0.551708    1.538746
O      4.382238    0.232878    1.148154
O      2.827272    0.237059    2.830735
H     -2.810562    0.844149   -1.831031
H     -3.566675    0.094857   -0.380820
H     -2.155320    1.198371   -0.183091
H     -2.197806   -1.569729   -1.545970
H     -2.298442   -1.754185    0.893681
H     -0.672273   -2.264983    0.318886
H     -0.892171   -0.644817    1.092430
H     -0.645970   -0.089895   -2.753672
H      0.231522   -1.368476   -1.877529
H      1.640170   -0.802701    0.058900
H      2.836380    1.835244   -0.130240
H      1.594229    1.877378    1.177155
