27

C      1.492763   -0.198038   -0.275204
C      0.212210    0.634581   -0.088681
C     -1.108877   -0.106954   -0.424412
O     -1.100502   -0.547632   -1.760115
P     -2.489368    1.083735   -0.253987
O     -3.782916    0.430601   -0.686074
O     -2.199293    2.429093   -1.239943
O     -2.633180    1.586236    1.356493
P     -1.419691   -1.518793    0.722168
O     -2.823685   -2.041028    0.515884
O     -1.255271   -1.005656    2.327113
O     -0.331027   -2.779887    0.419975
C      2.741165    0.647337    0.019218
N      3.964378   -0.135548   -0.143748
H      1.485874   -1.062240    0.418837
H      1.555331   -0.571452   -1.319083
H      0.174227    0.997948    0.961420
H      0.290405    1.530095   -0.744013
H     -0.538553   -1.362340   -1.816950
H     -2.938043    3.056277   -1.035633
H     -1.920083    2.262507    1.477247
H     -0.278455   -0.981411    2.487820
H     -0.503077   -3.440211    1.137699
H      2.696655    1.033605    1.060941
H      2.777031    1.518927   -0.670174
H      3.929521   -0.956159    0.504064
H      4.002463   -0.503592   -1.122194
