92

C      6.668231    2.799764   -0.777063
C      7.817229    1.881825   -0.364423
C      7.948306    0.697668   -1.333513
C      9.094640   -0.260357   -0.959459
C      8.915481   -1.031471    0.379048
C     10.125976   -1.964639    0.642391
C     11.436985   -1.210383    0.883037
C      7.611398   -1.876172    0.395836
N      6.443667   -1.066723    0.745296
C      6.133042   -0.619891    1.930483
N      6.955597   -0.892022    3.074400
N      4.970735    0.202295    2.096747
C      3.835418    0.185054    1.216794
N      3.100013    1.258666    1.130200
C      1.895008    1.443065    0.318776
C      2.253554    1.574755   -1.169541
C      1.064750    2.045596   -2.034207
C      0.384733    0.921257   -2.838140
C     -0.325721   -0.146707   -1.989276
C     -1.577269    0.375945   -1.273107
N     -2.642187    0.634534   -2.242208
C     -3.797653    1.164018   -1.962563
N     -4.756230    1.317780   -3.010153
N     -4.095101    1.647709   -0.641427
C     -5.397219    1.551543   -0.046005
N     -6.241802    0.661686   -0.484520
C     -7.562691    0.398124    0.080200
C     -8.239063   -0.782586   -0.656915
C     -7.367899   -2.064966   -0.706746
C     -7.086056   -2.712315    0.646469
C     -9.694311   -1.057512   -0.177087
C     -9.937376   -0.885879    1.338795
C    -11.258521   -1.514115    1.804103
C    -12.488074   -0.811999    1.229995
N     -5.709246    2.385311    1.076369
N      3.482801   -1.024343    0.524051
H      5.702861    2.251614   -0.718716
H      6.619860    3.669844   -0.091668
H      6.821284    3.172031   -1.809848
H      7.614037    1.526128    0.665779
H      8.764941    2.463512   -0.356225
H      6.988035    0.145409   -1.412986
H      8.167067    1.097301   -2.347231
H      9.216584   -0.993892   -1.783963
H     10.025561    0.340612   -0.924688
H      8.883118   -0.299282    1.213183
H      9.928769   -2.570174    1.555333
H     10.257725   -2.667823   -0.205978
H     11.299313   -0.421751    1.651296
H     11.812148   -0.755646   -0.055725
H     12.206060   -1.923638    1.249768
H      7.445953   -2.318334   -0.609416
H      7.677697   -2.734416    1.100346
H      7.777544   -1.533170    3.037799
H      6.706326   -0.480159    3.999489
H      4.962574    0.874170    2.898850
H      1.175288    0.621095    0.505709
H      1.407195    2.383417    0.656852
H      3.074504    2.320870   -1.265759
H      2.660187    0.615641   -1.553737
H      0.322271    2.608969   -1.430759
H      1.455734    2.775584   -2.773048
H     -0.348122    1.377005   -3.533934
H      1.151748    0.424945   -3.470420
H     -0.625013   -0.984358   -2.656569
H      0.381176   -0.575834   -1.251655
H     -1.923774   -0.392686   -0.548683
H     -1.331895    1.292448   -0.706597
H     -4.549717    0.963115   -3.969898
H     -5.653034    1.828914   -2.849051
H     -3.346522    2.123090   -0.091981
H     -7.454949    0.169281    1.162462
H     -8.197268    1.305270   -0.030949
H     -8.327052   -0.461726   -1.719310
H     -6.398898   -1.826929   -1.193513
H     -7.864656   -2.816979   -1.358072
H     -6.346285   -3.528806    0.509927
H     -6.655931   -1.979368    1.362185
H     -8.010425   -3.161959    1.064612
H    -10.370076   -0.353670   -0.710430
H     -9.996856   -2.081864   -0.491095
H     -9.124044   -1.365876    1.915492
H     -9.934981    0.196781    1.601897
H    -11.305976   -1.453358    2.915666
H    -11.284137   -2.590461    1.526269
H    -12.453658    0.275940    1.446942
H    -12.549911   -0.968897    0.131213
H    -13.401162   -1.240428    1.695388
H     -6.643484    2.378707    1.535314
H     -5.002449    3.069286    1.431975
H      2.593731   -1.116958   -0.010785
H      4.039834   -1.897049    0.644602
