55

C     -1.104469   -2.802052    1.105098
N     -0.428218   -1.529851    0.827312
C     -1.250812   -0.324164    0.658052
C     -1.398958    0.019622   -0.831120
C     -2.273478    1.260531   -1.050368
N     -3.681484    0.984557   -0.760308
C     -4.684041    2.003254   -0.876730
O     -4.364340    3.170432   -1.231025
C     -6.116792    1.701355   -0.536485
C     -6.328413    1.627443    0.968843
C     -7.354728    0.547656    1.104062
C     -7.103583   -0.308960   -0.118810
O     -6.509983    0.480042   -1.124269
C      1.001299   -1.470949    0.628469
N      1.626158   -0.271084    0.511069
C      2.966439   -0.183243    0.319775
C      3.560893    1.075074    0.197957
C      4.945299    1.192923   -0.016599
C      5.733035    0.036932   -0.113307
C      5.134017   -1.233224    0.010782
C      3.749229   -1.355275    0.240139
C      3.085214   -2.597645    0.382698
N      1.737758   -2.611860    0.563899
N      3.776313   -3.852452    0.362765
O      7.110818    0.192539   -0.337094
C      8.040555   -0.880254   -0.449965
O      5.575145    2.441871   -0.144160
C      4.901950    3.694917   -0.084485
H     -1.650717   -3.138688    0.198979
H     -0.388928   -3.592958    1.410753
H     -1.828091   -2.672372    1.938753
H     -0.790075    0.526278    1.206714
H     -2.257117   -0.484287    1.102551
H     -1.835998   -0.845146   -1.376106
H     -0.395062    0.218616   -1.263043
H     -2.180335    1.577246   -2.111233
H     -1.913489    2.092758   -0.407162
H     -3.977167    0.024962   -0.469402
H     -6.767026    2.503820   -0.951507
H     -5.398581    1.320575    1.501185
H     -6.693501    2.593548    1.381887
H     -8.376732    0.985235    1.055960
H     -7.231558   -0.027905    2.047499
H     -6.413027   -1.141764    0.137894
H     -8.056185   -0.740746   -0.493131
H      2.936138    1.955854    0.269598
H      5.753195   -2.108404   -0.088764
H      3.225643   -4.740009    0.374320
H      4.810762   -3.938805    0.444752
H      9.054839   -0.463606   -0.616859
H      7.775824   -1.525226   -1.314299
H      8.051332   -1.477771    0.486149
H      5.642880    4.508925   -0.215957
H      4.409061    3.818944    0.903176
H      4.149091    3.762790   -0.898558
