33

C      4.230491    1.682983   -0.524833
C      3.741507    0.560520    0.398322
C      2.255600    0.317507    0.224954
C      1.372293    0.570691    1.287527
C     -0.000851    0.355386    1.138376
C     -0.520692   -0.117747   -0.081048
C      0.361756   -0.367547   -1.142716
C      1.734277   -0.152455   -0.993967
N     -1.929969   -0.349642   -0.266968
C     -2.926046   -0.129923    0.784448
C     -4.309143   -0.502026    0.301955
C     -4.633627   -1.791924    0.132317
C     -5.328158    0.564152    0.001613
C      4.515702   -0.711800    0.180925
O      4.774024   -1.461291    1.160666
O      4.906970   -1.092952   -1.100193
H      5.310756    1.875246   -0.349781
H      3.671761    2.619181   -0.310670
H      4.085353    1.419872   -1.594185
H      3.943542    0.898416    1.439850
H      1.744594    0.936598    2.236372
H     -0.647695    0.562582    1.979651
H     -0.015035   -0.730840   -2.090647
H      2.389310   -0.353883   -1.831634
H     -2.253130   -0.684315   -1.204266
H     -2.900693    0.937916    1.089583
H     -2.673850   -0.745756    1.675192
H     -3.913445   -2.578262    0.338531
H     -5.622369   -2.075765   -0.216066
H     -5.652864    0.485384   -1.057576
H     -4.911382    1.580269    0.162278
H     -6.210870    0.436933    0.663376
H      5.411887   -1.957508   -1.253820
