34

C      4.612353   -0.016008   -0.208549
C      3.210726    0.605154   -0.146184
C      3.102148    1.520802    1.082938
C      2.138857   -0.508614   -0.134473
C      0.713513    0.032904   -0.332900
C     -0.300233   -1.117760   -0.459377
C     -1.737600   -0.625794   -0.764810
C     -2.568212   -1.790937   -1.331341
C     -2.407374   -0.029475    0.499716
C     -3.743603    0.665117    0.197985
C     -4.253818    1.369932    1.415537
O     -3.955011    2.575615    1.621804
O     -5.018593    0.681040    2.348408
H      4.799193   -0.651196    0.684148
H      4.716691   -0.640281   -1.121593
H      5.385652    0.780638   -0.250744
H      3.077495    1.226239   -1.059780
H      2.156128    2.099445    1.059568
H      3.143254    0.926481    2.020903
H      3.935826    2.255171    1.090187
H      2.192067   -1.074526    0.822049
H      2.358988   -1.221468   -0.960053
H      0.681544    0.653818   -1.254821
H      0.446107    0.668742    0.533391
H     -0.298406   -1.724995    0.472932
H      0.042749   -1.778480   -1.286386
H     -1.682161    0.159525   -1.551555
H     -2.713370   -2.579565   -0.562115
H     -3.558700   -1.437319   -1.682970
H     -2.057989   -2.239886   -2.210119
H     -1.732923    0.725008    0.954600
H     -2.568335   -0.830996    1.254590
H     -3.612746    1.401125   -0.625130
H     -4.504215   -0.079457   -0.115859
