40

C      3.489963    1.505775    0.999009
C      4.054608    0.272395    0.370727
C      3.628676   -0.347269   -0.787624
N      4.334992   -1.481021   -0.973343
C      5.182010   -1.519497    0.077889
N      5.029631   -0.473853    0.912689
C      2.502422    0.081625   -1.681060
N      1.208405   -0.240321   -1.066949
C      0.842675   -1.652721   -0.827560
C     -0.638293   -1.937034   -1.163223
C     -1.525979   -0.883084   -0.556954
C     -1.081840    0.406176   -0.351046
C      0.295537    0.796832   -0.650065
O      0.657323    2.001864   -0.581087
C     -2.182226    1.143541    0.032597
C     -2.332042    2.498752    0.327681
C     -3.621585    2.963771    0.638300
C     -4.721867    2.079929    0.634364
C     -4.545158    0.719819    0.322977
C     -3.251461    0.273312    0.032743
N     -2.860476   -0.974127   -0.322159
C     -3.726702   -2.123669   -0.582992
H      3.353478    2.295214    0.231288
H      4.180506    1.887757    1.779744
H      2.512180    1.268658    1.466999
H      5.897195   -2.315168    0.239119
H      5.550415   -0.295250    1.799957
H      2.592671    1.167955   -1.892901
H      2.583951   -0.442590   -2.657454
H      1.017055   -1.885430    0.245524
H      1.486495   -2.331967   -1.427812
H     -0.775929   -1.930217   -2.265393
H     -0.904690   -2.941569   -0.775273
H     -1.490138    3.177514    0.317607
H     -3.772897    4.008994    0.874581
H     -5.710800    2.452969    0.866956
H     -5.393899    0.049809    0.307615
H     -4.566849   -2.146193    0.141437
H     -3.166754   -3.073476   -0.468667
H     -4.130601   -2.058201   -1.614725
