23

C     -1.150504   -1.260600   -0.951906
C     -1.242398    0.143937   -0.318862
C     -1.889136    0.033569    1.072601
C      0.147744    0.853536   -0.248676
C      1.187325    0.296870    0.764196
C      1.699262   -1.067850    0.386391
O      1.581894   -2.023533    1.198300
O      2.328001   -1.291842   -0.836602
N      2.326989    1.209023    0.885765
O     -2.101304    0.933680   -1.108792
H     -0.691526   -1.994440   -0.259601
H     -0.557812   -1.229944   -1.891039
H     -2.168662   -1.631186   -1.198823
H     -1.359559   -0.704261    1.711378
H     -2.944177   -0.302524    0.976454
H     -1.886359    1.021507    1.581119
H     -0.041951    1.916524    0.020382
H      0.596653    0.878211   -1.265297
H      0.715456    0.231113    1.767762
H      2.466557   -0.547831   -1.508843
H      2.699884    1.436265   -0.065128
H      1.996326    2.106074    1.310703
H     -1.712704    0.993702   -2.021482
