37

C      3.153488   -0.008998    2.829807
C      2.704965   -0.295589    1.601201
C      3.169137   -1.560564    0.917726
C      4.500895   -1.348861    0.190203
O      4.369733   -0.396675   -0.830938
C      1.797626    0.634678    0.889576
O      1.368916    1.673792    1.464441
O      1.419775    0.355154   -0.429412
C      0.465497    1.126618   -1.157227
C     -0.964903    0.827550   -0.684596
C     -1.316660   -0.676139   -0.856640
C     -2.847694   -0.892317   -0.992509
C     -3.634110    0.247481   -0.315076
C     -3.160010    1.633663   -0.851850
O     -1.864530    1.612860   -1.442797
O     -3.213013    2.608275    0.158211
O     -3.462044    0.160739    1.078252
O     -3.186608   -0.949277   -2.356236
O     -0.790609   -1.437943    0.203140
H      2.856714    0.895930    3.344657
H      3.833123   -0.678741    3.342289
H      3.294136   -2.372834    1.667399
H      2.402533   -1.916328    0.195986
H      4.853403   -2.317290   -0.231674
H      5.270088   -0.999261    0.911594
H      3.884108   -0.842056   -1.573619
H      0.687044    2.210492   -1.043944
H      0.558797    0.879397   -2.236335
H     -1.022594    1.116258    0.391049
H     -0.840737   -1.052711   -1.789674
H     -3.121295   -1.861698   -0.511691
H     -4.715999    0.113995   -0.556766
H     -3.873962    1.926340   -1.655103
H     -3.029054    3.479431   -0.280715
H     -4.244539    0.606659    1.496371
H     -4.082631   -1.373378   -2.414637
H     -1.218988   -1.128651    1.042756
