40

C     -1.867104    1.751494    0.137790
C     -2.981288    1.552968   -0.846855
C     -3.243285    0.043551   -0.768406
O     -2.690627   -0.465644    0.429137
C     -2.072120    0.604661    1.110998
N     -0.785391    0.182171    1.702290
C      0.014755   -0.698802    1.026992
C      1.256729   -1.082734    1.541344
C      1.669839   -0.517764    2.753525
O      2.788727   -0.818965    3.251493
N      0.863908    0.366732    3.396160
C     -0.344174    0.726159    2.882686
O     -1.047511    1.570509    3.503358
C      2.141680   -2.031398    0.770520
O      3.228751   -1.333876    0.193286
C      2.873598   -0.835639   -1.080579
C      4.022959    0.007620   -1.623771
N      3.695338    0.512978   -2.953230
C     -2.630461   -0.693275   -1.968759
O     -2.896951   -2.067681   -1.888272
O     -4.113867    2.269671   -0.426843
H     -1.916967    2.739341    0.646499
H     -0.888731    1.653465   -0.384198
H     -2.666619    1.895131   -1.861408
H     -4.338344   -0.154310   -0.766666
H     -2.777983    0.930524    1.908482
H     -0.301582   -1.102224    0.073031
H      1.183383    0.788146    4.298622
H      2.551776   -2.784272    1.476409
H      1.557224   -2.619718    0.023683
H      2.687800   -1.677022   -1.786454
H      1.965106   -0.194007   -1.019657
H      4.938024   -0.621469   -1.685758
H      4.224384    0.857430   -0.933475
H      4.536881    1.014944   -3.318385
H      2.941908    1.231974   -2.853455
H     -3.083834   -0.306221   -2.906272
H     -1.532469   -0.509413   -2.022665
H     -2.217562   -2.455741   -1.277163
H     -4.745902    2.270707   -1.192481
