40

C     -4.807613   -0.813653   -0.027985
C     -3.322336   -0.549521    0.000475
C     -2.435188   -1.490549   -0.559812
C     -1.040518   -1.232036   -0.558771
C     -0.549618   -0.126503    0.165079
C     -1.428990    0.776381    0.784243
C     -2.818867    0.587948    0.660805
O     -3.707932    1.511113    1.220990
C     -4.018815    2.736189    0.567867
C     -0.873493    1.955374    1.541949
O      0.832449    0.078548    0.268040
C      1.770856   -0.955996   -0.020239
C      1.403968   -1.642385   -1.339952
C     -0.052363   -2.016446   -1.357634
O     -0.421810   -2.909400   -2.164339
C      3.167812   -0.388024   -0.080173
C      4.244645   -1.100123    0.476238
C      5.544484   -0.590739    0.396011
C      5.781911    0.626249   -0.248099
C      4.720482    1.334218   -0.817553
C      3.419057    0.829028   -0.740008
O     -2.974024   -2.671858   -1.080216
H     -5.102006   -1.308137   -0.977659
H     -5.081479   -1.470822    0.823567
H     -5.394556    0.125331    0.039536
H     -3.104755    3.351736    0.439685
H     -4.748793    3.301337    1.182565
H     -4.467652    2.531699   -0.427063
H     -1.590938    2.324090    2.304386
H     -0.641136    2.775956    0.831621
H      0.054367    1.673405    2.083075
H      1.708370   -1.709569    0.797347
H      2.028362   -2.553280   -1.470940
H      1.596126   -0.956423   -2.193507
H      4.078944   -2.049150    0.970900
H      6.368599   -1.141633    0.830577
H      6.788886    1.018162   -0.310227
H      4.906573    2.273208   -1.322681
H      2.608662    1.384401   -1.195752
H     -2.441672   -3.518126   -1.222210
