17

C     -0.504275    0.354049   -0.761581
C      0.697049   -0.283721   -0.038715
C      1.917819    0.651678   -0.067547
O      3.027335    0.026692    0.519615
O      0.363811   -0.623519    1.285064
C     -1.667061   -0.597934   -0.826184
O     -1.710967   -1.454456   -1.749028
C     -2.736254   -0.582019    0.182463
O     -2.721423    0.245827    1.131295
H     -0.210182    0.623304   -1.799783
H     -0.803305    1.295940   -0.252192
H      0.973022   -1.218141   -0.575740
H      2.172924    0.891471   -1.121937
H      1.689631    1.611932    0.450400
H      2.929194    0.133431    1.501702
H      0.133015    0.217071    1.761132
H     -3.550330   -1.291607    0.112090
