18

C      0.778469   -0.274500   -0.211285
C      1.179554   -0.328152   -1.687331
C      2.641953   -0.050432   -1.840925
O      3.477467   -0.987305   -1.746473
O      3.086990    1.251054   -2.034057
C     -0.690936   -0.559705   -0.044984
O     -1.114210   -1.680597   -0.290361
C     -1.625192    0.509821    0.474788
C     -1.412824    0.731665    1.947073
O     -1.274098    1.900141    2.398485
O     -1.406961   -0.346668    2.824727
O     -2.970464    0.191291    0.212123
H      1.018745    0.731613    0.198642
H      1.357894   -1.026257    0.367855
H      0.602667    0.430514   -2.260686
H      0.949761   -1.331920   -2.109164
H     -1.393968    1.453120   -0.067020
H     -3.204848   -0.613684    0.745260
