16

C     -1.678090   -0.013689   -0.406853
C     -0.329474   -0.643600   -0.015011
C      0.844445    0.337830   -0.207346
C      2.153983   -0.388542   -0.077050
O      2.753569   -0.799796   -1.105155
O      2.686482   -0.652949    1.179160
O      0.778689    1.365419    0.747943
O     -0.371472   -1.084554    1.318979
O     -2.038245    1.007153    0.486592
H     -1.641047    0.359643   -1.457185
H     -2.462940   -0.798951   -0.371586
H     -0.161434   -1.515766   -0.691287
H      0.779453    0.773891   -1.232485
H      1.366223    2.097340    0.423225
H     -0.925230   -1.908657    1.332171
H     -1.754911    1.865229    0.075888
