50

C      2.619988    0.759716   -2.054960
C      2.768646    0.020279   -0.712195
C      3.374875   -1.348368   -0.963018
C      4.713670   -1.605410   -0.609621
C      5.294637   -2.849571   -0.889594
C      4.550324   -3.842692   -1.535931
C      3.216276   -3.598223   -1.888049
C      2.627611   -2.360612   -1.603600
N      1.470165   -0.130447   -0.018442
C      0.916338    1.153696    0.452478
N      0.148441    1.792990   -0.630455
C     -0.169304    3.192393   -0.304273
C     -1.221288    3.774670   -1.268546
O     -2.473632    3.165885   -1.018691
O     -0.830261    3.555031   -2.605482
N      0.070455    0.946170    1.641454
C     -1.230889    0.323863    1.643387
C     -2.202528    0.782535    2.546678
C     -3.481075    0.215874    2.566306
C     -3.807273   -0.826830    1.685873
C     -2.829112   -1.313303    0.803913
C     -1.552406   -0.739932    0.777986
C     -5.177504   -1.456293    1.731272
N     -5.251600   -2.481526    2.764918
H      2.424495    1.838636   -1.883231
H      1.786753    0.322394   -2.655758
H      3.561566    0.691369   -2.645880
H      3.469000    0.608958   -0.070250
H      5.314701   -0.839481   -0.127754
H      6.329813   -3.038817   -0.619584
H      5.007355   -4.802363   -1.761981
H      2.640380   -4.372818   -2.391116
H      1.594958   -2.184047   -1.890510
H      1.642016   -0.731532    0.822889
H      1.751755    1.829894    0.753317
H     -0.728244    1.251329   -0.818853
H     -0.560669    3.278185    0.728881
H      0.764985    3.799612   -0.378038
H     -1.291899    4.873313   -1.071640
H     -3.153200    3.684525   -1.528131
H     -1.451312    4.103297   -3.172427
H      0.363888    1.444132    2.515308
H     -1.972310    1.595094    3.225940
H     -4.217861    0.590804    3.268384
H     -3.056179   -2.134792    0.133954
H     -0.825214   -1.136922    0.084130
H     -5.420422   -1.920272    0.751637
H     -5.945953   -0.676957    1.919278
H     -5.091744   -2.032035    3.694317
H     -4.481214   -3.171401    2.605713
