41

C     -2.463939    1.448239   -0.711070
C     -3.554594    0.372576   -0.774609
C     -4.023656   -0.056431    0.642158
C     -2.902133    0.067812    1.699672
C     -1.519015   -0.147805    1.078339
C     -1.190364    0.950553    0.033244
C     -0.104395    0.482017   -0.969306
C      1.286546    0.235397   -0.314004
C      1.528282   -1.267144   -0.042877
C      2.907890   -1.507368    0.583734
C      4.028509   -0.953556   -0.307961
C      3.795697    0.550070   -0.584702
C      2.416160    0.786717   -1.211696
N      5.325909   -1.235640    0.320967
C      6.188790   -0.355385    0.644913
O      7.026332    0.499510    0.959438
N     -5.172754    0.737633    1.076535
C     -6.319465    0.625118    0.534836
O     -7.433721    0.515698    0.007918
H     -2.227729    1.790186   -1.741916
H     -2.877848    2.331699   -0.175964
H     -3.147084   -0.513171   -1.310073
H     -4.407691    0.747047   -1.380285
H     -4.327254   -1.127487    0.593962
H     -3.067713   -0.681116    2.504503
H     -2.924358    1.075426    2.172288
H     -1.509758   -1.153258    0.603054
H     -0.752678   -0.138851    1.883443
H     -0.782267    1.830156    0.580690
H     -0.001723    1.275812   -1.742070
H     -0.455547   -0.424052   -1.510852
H      1.338599    0.780121    0.655779
H      1.453409   -1.842355   -0.992410
H      0.762650   -1.663251    0.653139
H      2.949604   -1.025268    1.585721
H      3.054046   -2.600591    0.724352
H      4.003040   -1.493904   -1.280298
H      4.574909    0.924679   -1.283622
H      3.869666    1.129787    0.362233
H      2.278915    1.881028   -1.354377
H      2.376732    0.302301   -2.212828
