51

C     -0.176512    2.282721   -2.193917
C     -0.514989    1.210397   -1.200919
C     -1.773927    0.824320   -0.763334
N     -1.620548   -0.144344    0.169321
N     -0.332822   -0.406561    0.330325
C      0.366029    0.401697   -0.491247
C      1.838734    0.376199   -0.585922
O      2.431545    1.086289   -1.441704
N      2.603342   -0.462489    0.286509
N      4.008886   -0.480116    0.198579
C      4.450311   -1.863725   -0.034316
C      5.966012   -1.905743   -0.306930
C      6.702953   -0.690824    0.282442
C      6.075661   -0.256447    1.610266
C      4.568897    0.052560    1.457963
C     -2.657546   -0.878300    0.841553
C     -2.646254   -1.024571    2.243557
C     -3.661924   -1.749903    2.878325
C     -4.686255   -2.334960    2.127798
C     -4.698289   -2.197356    0.737417
C     -3.688386   -1.475925    0.096676
Cl    -5.956326   -3.239751    2.930924
Cl    -1.406486   -0.265797    3.234224
C     -3.069610    1.395676   -1.191165
C     -3.999777    1.833842   -0.234572
C     -5.233524    2.352879   -0.637692
C     -5.547742    2.438335   -1.997552
C     -4.626250    2.003339   -2.955217
C     -3.392043    1.482584   -2.555059
I     -7.410631    3.219151   -2.603188
H      0.145200    1.817075   -3.148380
H      0.640062    2.921128   -1.798223
H     -1.049288    2.939647   -2.384457
H      2.115703   -1.045857    1.005881
H      3.915116   -2.289745   -0.911949
H      4.210532   -2.499319    0.849336
H      6.385541   -2.839864    0.126402
H      6.148400   -1.934312   -1.403355
H      6.651289    0.157367   -0.435593
H      7.774780   -0.941216    0.436353
H      6.211651   -1.073839    2.352527
H      6.608047    0.639412    1.997117
H      4.426111    1.155035    1.464954
H      4.027815   -0.360172    2.340215
H     -3.658401   -1.853725    3.956182
H     -5.487480   -2.651439    0.151841
H     -3.703210   -1.389589   -0.982373
H     -3.768072    1.779320    0.822011
H     -5.943960    2.688509    0.106564
H     -4.867491    2.064064   -4.008506
H     -2.694875    1.134342   -3.307123
