17

C     -2.743007   -0.525670   -0.742167
N     -1.349387   -0.540108   -0.317215
C     -0.527045    0.516170   -0.221782
C      0.721003    0.038245    0.115354
N      0.693689   -1.308939    0.197233
C     -0.590321   -1.626373   -0.074070
C      1.961414    0.858738    0.268847
C      2.643977    1.005926   -1.052133
O      2.358890    1.971406   -1.808528
O      3.560262    0.049857   -1.471700
H     -3.231185    0.417995   -0.418109
H     -2.794780   -0.602891   -1.848313
H     -3.288793   -1.380755   -0.289748
H     -0.806887    1.546192   -0.403734
H     -0.959632   -2.643250   -0.110144
H      2.648002    0.363125    0.987859
H      1.703800    1.860333    0.676399
