28

C      1.221919    0.387517    1.492108
C      0.502601    1.452448    0.635706
C      1.044658    1.402194   -0.809982
C      0.792627    0.001291   -1.410192
C      1.509930   -1.063174   -0.550721
C      0.968062   -1.013919    0.895073
C     -0.549916   -1.301277    0.885575
C     -1.284422   -0.239818    0.024542
C     -1.015333    1.164863    0.626230
C     -0.725179   -0.286702   -1.424896
N     -2.726040   -0.510937    0.033531
H      2.313986    0.596539    1.519894
H      0.850202    0.427524    2.539631
H      0.686701    2.460770    1.066113
H      0.543939    2.177393   -1.430794
H      2.133962    1.626818   -0.814924
H      1.186948   -0.033536   -2.449017
H      2.606289   -0.875937   -0.551726
H      1.346386   -2.074550   -0.983657
H      1.486932   -1.779434    1.512013
H     -0.941530   -1.286628    1.926898
H     -0.732747   -2.320363    0.478218
H     -1.537771    1.945270    0.029634
H     -1.414501    1.219547    1.663344
H     -1.241427    0.465810   -2.061207
H     -0.910789   -1.286131   -1.876968
H     -2.902822   -1.448678   -0.395865
H     -3.212667    0.193100   -0.568561
