78

C      2.430165    1.948127    0.053880
C      3.657234    1.242291   -0.561641
N      3.755886   -0.254409   -0.402092
C      4.993295   -0.675041   -1.158342
C      5.296494   -2.186702   -1.187159
C      2.510934   -0.919038   -0.951337
C      2.353485   -1.000408   -2.497791
N      2.045476    0.287670   -3.119544
C      0.763942    0.939045   -3.118876
O      0.742015    2.195471   -3.152584
C     -0.523808    0.204282   -3.183983
O     -0.548158   -1.033304   -3.405544
N     -1.758859    0.927827   -3.072950
C     -3.046051    0.298527   -3.360458
C     -3.575409   -0.606304   -2.203229
N     -4.054528    0.052798   -0.915420
C     -4.825101    1.290440   -1.296249
C     -5.786310    1.897791   -0.260449
C     -2.821653    0.359291   -0.094346
C     -2.921616    1.454519    0.987947
C     -4.932442   -1.003552   -0.270385
C     -5.347044   -0.860990    1.199995
C     -4.411503   -1.153461    2.219484
C     -4.771801   -1.077939    3.566039
C     -6.096207   -0.820389    3.925703
C     -7.062054   -0.635420    2.935345
C     -6.708732   -0.685103    1.579244
Cl    -8.038170   -0.626318    0.421234
C      3.867600   -0.635232    1.063134
C      5.230407   -0.378244    1.738443
C      5.616537    0.934966    2.082701
C      6.894506    1.198966    2.601297
C      7.789591    0.151388    2.838790
C      7.375665   -1.172200    2.631521
C      6.098455   -1.451081    2.109049
Cl     5.611915   -3.153879    2.066987
H      2.553555    3.052698   -0.079395
H      1.497478    1.683722   -0.485448
H      2.310089    1.777374    1.140397
H      3.665360    1.516311   -1.633042
H      4.569260    1.744062   -0.177445
H      4.949902   -0.307099   -2.205980
H      5.900628   -0.162774   -0.762211
H      6.170768   -2.406949   -0.548368
H      4.450741   -2.816941   -0.848782
H      5.568464   -2.494634   -2.224307
H      2.465369   -1.979592   -0.619643
H      1.584991   -0.493623   -0.504353
H      3.240766   -1.442707   -2.986364
H      1.553324   -1.733858   -2.714908
H      2.816239    0.754718   -3.634263
H     -1.733379    1.961611   -2.927865
H     -3.778202    1.075094   -3.649233
H     -2.934161   -0.331722   -4.269490
H     -4.407389   -1.176121   -2.677625
H     -2.805575   -1.378635   -1.984300
H     -5.462072    1.081066   -2.189294
H     -4.115599    2.098253   -1.608550
H     -5.524191    1.712708    0.787455
H     -5.820148    2.999840   -0.403422
H     -6.815064    1.546540   -0.443164
H     -1.993328    0.708703   -0.737166
H     -2.394907   -0.569912    0.346303
H     -1.942725    1.527863    1.509418
H     -3.117474    2.446095    0.537425
H     -3.668921    1.227970    1.769621
H     -4.424083   -1.992967   -0.324528
H     -5.842617   -1.135519   -0.894449
H     -3.415315   -1.481929    1.981758
H     -4.026351   -1.260277    4.324164
H     -6.381302   -0.779176    4.971294
H     -8.101337   -0.486637    3.220301
H      3.077476   -0.147389    1.684393
H      3.617080   -1.711183    1.194662
H      4.924023    1.755351    2.001344
H      7.179449    2.210752    2.844176
H      8.771261    0.350690    3.261352
H      8.033761   -1.996163    2.920237
