48

C      3.315188    1.065620    1.243003
C      4.318975    0.062046    0.656220
C      3.566530   -1.111866    0.007411
C      2.461101   -1.664492    0.938212
C      1.630619   -0.526206    1.600863
O      2.473214    0.448910    2.200904
O      0.749005    0.098027    0.656971
C     -0.555522   -0.298010    0.288390
C     -1.331911    0.611495   -0.461677
O     -2.595943    0.329526   -0.761570
C     -3.189910   -0.805930   -0.421971
C     -4.527840   -1.004333   -0.778179
C     -5.179500   -2.192240   -0.445957
C     -4.487902   -3.194127    0.244615
C     -3.145048   -3.013547    0.613464
C     -2.482291   -1.803439    0.287681
C     -1.144736   -1.533660    0.650693
O     -0.487361   -2.390834    1.296844
O     -2.482800   -4.034116    1.299594
O     -6.514946   -2.367531   -0.803992
C     -0.791010    1.913762   -0.913174
C     -1.576590    3.073237   -0.788010
C     -1.087399    4.309942   -1.220605
C      0.185117    4.400825   -1.797520
C      0.961291    3.247677   -1.946251
C      0.474099    2.008518   -1.517680
O      0.684884    5.627619   -2.229464
O      3.010876   -2.527369    1.907491
O      2.993742   -0.670712   -1.197754
O      5.174915   -0.412544    1.663849
H      3.877081    1.882070    1.746043
H      2.726696    1.550342    0.432481
H      4.923356    0.571311   -0.131696
H      4.301326   -1.920014   -0.218050
H      1.781240   -2.283908    0.314543
H      1.027318   -0.951550    2.430237
H     -5.064633   -0.230587   -1.316419
H     -4.995005   -4.116667    0.499704
H     -2.947871   -4.902659    1.534594
H     -7.014969   -3.222120   -0.586172
H     -2.561232    3.022550   -0.340867
H     -1.695736    5.196106   -1.104849
H      1.940420    3.309655   -2.402654
H      1.075900    1.123817   -1.677966
H      0.133450    6.476095   -2.163262
H      3.445876   -1.973118    2.609365
H      2.782493   -1.480937   -1.733006
H      5.845443    0.303365    1.835573
