42

C      4.968588    0.618504   -0.891009
C      4.771018    0.205394    0.574464
C      3.283143    0.052903    0.927124
O      2.614690    1.301040    0.848107
C      1.680908    1.340178   -0.215723
C      0.292361    0.901158    0.260426
O      0.231383   -0.506545    0.409231
C     -0.265360   -1.142695   -0.759469
C      0.553684   -2.410286   -1.008220
C     -1.743871   -1.504891   -0.559569
O     -2.500278   -0.323104   -0.404564
C     -3.853208   -0.649676   -0.166174
C     -4.666063    0.643830    0.017914
C     -6.154155    0.331075    0.191571
N     -4.189762    1.415120    1.169340
N      5.413728    1.157863    1.483434
H      4.531662    1.621570   -1.082365
H      4.485600   -0.120647   -1.565155
H      6.052308    0.652390   -1.131427
H      5.250369   -0.789375    0.714245
H      3.210009   -0.304823    1.976311
H      2.836053   -0.753826    0.303732
H      1.605182    2.396590   -0.549419
H      2.002307    0.762372   -1.112905
H      0.093282    1.363406    1.250568
H     -0.489512    1.306680   -0.422936
H     -0.166965   -0.518354   -1.680716
H      1.610574   -2.141788   -1.214682
H      0.160735   -2.960500   -1.889920
H      0.520475   -3.076675   -0.119647
H     -1.832043   -2.152023    0.344201
H     -2.099044   -2.070535   -1.451805
H     -3.954414   -1.275144    0.751067
H     -4.270664   -1.209540   -1.034786
H     -4.554042    1.265509   -0.898549
H     -6.542082   -0.202804   -0.702125
H     -6.726889    1.275440    0.310130
H     -6.318272   -0.301735    1.090137
H     -3.214277    1.741619    0.979879
H     -4.156677    0.798008    2.013844
H      6.445513    1.137565    1.311991
H      5.084008    2.126755    1.265739
