46

C      7.242629    1.196890    0.238029
C      6.610887    0.196541   -0.729553
C      5.085230    0.103517   -0.574124
C      4.666991   -0.555034    0.752197
C      3.164784   -0.875929    0.802331
C      2.292527    0.391265    0.849066
C      0.820952    0.086771    1.172692
C      0.097298   -0.623354    0.015109
C     -1.386333   -0.888040    0.320954
C     -2.255085    0.372136    0.163240
C     -3.729846    0.120102    0.514239
C     -4.445602   -0.759419   -0.523134
N     -5.888218   -0.793773   -0.265611
C     -6.732325    0.154109   -0.582524
N     -8.120182   -0.008754   -0.274501
N     -6.310277    1.357461   -1.241198
H      8.322721    1.304508    0.004036
H      7.149870    0.842269    1.285419
H      6.758989    2.191951    0.139386
H      7.072580   -0.804319   -0.584809
H      6.838736    0.523883   -1.767161
H      4.691477   -0.501823   -1.419677
H      4.646024    1.121189   -0.652267
H      4.930582    0.103574    1.607302
H      5.224924   -1.509028    0.875271
H      2.894463   -1.496747   -0.078241
H      2.975041   -1.481778    1.715233
H      2.682585    1.069153    1.639657
H      2.350891    0.932712   -0.119490
H      0.758983   -0.531241    2.095100
H      0.319490    1.053937    1.384018
H      0.190527   -0.027137   -0.919069
H      0.582453   -1.606216   -0.163306
H     -1.493201   -1.301751    1.347716
H     -1.741738   -1.661397   -0.392430
H     -1.881773    1.165815    0.843102
H     -2.178794    0.758110   -0.876919
H     -3.804964   -0.353001    1.517756
H     -4.238675    1.105161    0.579010
H     -4.052505   -1.795362   -0.442864
H     -4.242446   -0.421406   -1.561994
H     -6.257815   -1.659333    0.190136
H     -8.469586   -0.869106    0.203417
H     -8.807843    0.736250   -0.523473
H     -7.013747    2.092610   -1.474509
H     -5.320680    1.544032   -1.510426
