17

C      0.753282   -0.783996   -0.601946
C     -0.567633   -0.129291   -1.055176
C     -1.182296    0.817922    0.000627
N     -1.510895    0.144898    1.258467
O     -1.501627   -1.125056   -1.385332
C      1.815106    0.232959   -0.314119
O      2.427431    0.792073   -1.263007
O      2.103715    0.581978    1.001401
H      1.120855   -1.453375   -1.409834
H      0.587508   -1.421357    0.292056
H     -0.359619    0.486443   -1.962318
H     -2.112902    1.259105   -0.416980
H     -0.490680    1.663715    0.205179
H     -0.628284   -0.104425    1.759080
H     -2.039259   -0.735640    1.062823
H     -1.224139   -1.503592   -2.260507
H      2.809439    1.277638    1.211325
