21

C     -1.683041   -2.128187   -0.084070
N     -0.819565   -0.940131   -0.080857
C      0.535636   -1.063402   -0.079332
C      1.355678    0.006426   -0.026345
C      0.841903    1.289703    0.033462
O      1.618258    2.281980    0.102314
N     -0.526025    1.443951    0.024731
C     -1.351342    0.330185   -0.000132
O     -2.605126    0.477025    0.058461
C     -1.112973    2.790248    0.125848
N      2.629241   -0.405421   -0.019817
C      2.531132   -1.756172   -0.070717
N      1.248506   -2.206105   -0.106419
H     -1.980683   -2.374265    0.956876
H     -1.163685   -3.003906   -0.528566
H     -2.594705   -1.947478   -0.692772
H     -2.074166    2.849107   -0.428194
H     -1.290562    3.039403    1.193160
H     -0.445807    3.557982   -0.320940
H      3.497404    0.173302    0.021272
H      3.389921   -2.414247   -0.077960
