10

C      1.357238    0.768964    0.407350
C      1.686300   -0.579688    0.316714
S      0.260595   -1.457154    0.138948
C     -0.700618   -0.080551    0.186164
N      0.027851    1.045351    0.334503
N     -2.121612   -0.083985    0.082921
H      2.098399    1.547548    0.527127
H      2.686054   -0.990561    0.354263
H     -2.639892   -0.982930   -0.030931
H     -2.654315    0.813006    0.120463
