32

C     -3.903547    1.557037   -0.984602
C     -3.323488    0.410215   -0.157899
C     -2.032055    0.798240    0.583329
C     -0.856374    1.198687   -0.330273
C     -0.424008    0.122528   -1.345708
C     -0.034487   -1.236974   -0.731085
C      1.090268   -1.177038    0.317990
C      2.419334   -0.656574   -0.261171
C      3.595745   -0.767407    0.728854
C      3.384221    0.113232    1.926832
O      2.879855   -0.351146    2.983819
O      3.700761    1.463999    1.855570
O      3.783651   -2.098030    1.138370
H     -4.900973    1.263273   -1.374165
H     -3.249131    1.785035   -1.851378
H     -4.021985    2.466839   -0.358538
H     -4.079812    0.112056    0.600102
H     -3.152414   -0.472484   -0.808780
H     -2.252620    1.650208    1.262804
H     -1.724692   -0.047627    1.233712
H      0.011376    1.471576    0.306810
H     -1.122421    2.122573   -0.886087
H     -1.242973   -0.041037   -2.077527
H      0.429965    0.516208   -1.936322
H     -0.930574   -1.702270   -0.268559
H      0.279955   -1.915531   -1.553758
H      1.241103   -2.208157    0.704188
H      0.773534   -0.551722    1.178108
H      2.308663    0.408110   -0.559408
H      2.671921   -1.236845   -1.175524
H      4.518126   -0.410845    0.214565
H      4.163076   -2.586131    0.361338
