42

C      3.434399    1.515385   -0.867748
C      3.023770    0.273162   -0.062853
C      3.060144   -0.974209   -0.962579
C      1.673592    0.480666    0.701041
C      1.335304   -0.710455    1.644037
C      0.284219   -1.655393    1.045687
C     -1.076496   -0.944750    0.731964
C     -1.688806   -1.629760   -0.531851
C     -2.940588   -0.926913   -1.068282
C     -2.636234    0.525458   -1.420147
C     -2.049287    1.229943   -0.225193
C     -2.498658    2.445805    0.128008
C     -0.869979    0.598770    0.505301
C      0.473114    0.889896   -0.210401
O      0.569396    2.264447   -0.498629
C     -2.025479   -1.147234    1.940092
H      4.481495    1.408521   -1.223617
H      2.779605    1.648393   -1.754724
H      3.381582    2.425019   -0.232464
H      3.814115    0.131728    0.708518
H      4.039977   -1.037121   -1.482547
H      2.960651   -1.897578   -0.357180
H      2.264778   -0.949135   -1.734126
H      1.852848    1.340858    1.387142
H      2.249282   -1.288184    1.901451
H      0.940203   -0.317693    2.606948
H      0.133319   -2.510668    1.740954
H      0.717234   -2.100912    0.126687
H     -1.942360   -2.688517   -0.303918
H     -0.940629   -1.650900   -1.355123
H     -3.287490   -1.454083   -1.983264
H     -3.765261   -0.975956   -0.325877
H     -1.907442    0.565264   -2.258436
H     -3.575672    1.013346   -1.761516
H     -2.056718    2.985302    0.960018
H     -3.311482    2.922134   -0.411484
H     -0.798670    1.083708    1.507536
H      0.500950    0.300916   -1.154127
H      0.194841    2.402778   -1.407814
H     -1.543436   -0.795561    2.877472
H     -2.281704   -2.221017    2.067867
H     -2.968426   -0.575464    1.814573
