42

C      2.083848    0.989745   -1.925587
C      1.404805    1.139922   -0.534741
C      2.499472    1.306291    0.561176
C      3.251080   -0.021297    0.898434
C      2.491591   -1.296333    0.468388
C      0.985019   -1.143304    0.710286
C      0.332614    0.009148   -0.173858
C     -0.362588   -0.547641   -1.460709
C     -1.845944   -0.640153   -1.157998
C     -2.103886    0.553604   -0.251795
C     -0.857649    0.635965    0.630129
C     -3.393661    0.496785    0.560141
C     -3.764325    1.579342    1.264076
C     -4.258281   -0.741220    0.593995
C      0.300922   -2.485965    0.597396
O     -0.696305   -2.728792    1.258680
O      4.547111   -0.022239    0.353024
O      1.964635    1.910990    1.715114
H      2.303525   -0.065190   -2.176645
H      3.031433    1.564789   -1.987653
H      1.438330    1.413291   -2.723097
H      0.879504    2.119092   -0.601396
H      3.252704    2.035435    0.189223
H      3.375766   -0.071985    2.002891
H      2.883735   -2.149036    1.067113
H      2.680905   -1.548145   -0.594339
H      0.908774   -0.876953    1.787194
H      0.052113   -1.518095   -1.806199
H     -0.290909    0.156294   -2.312117
H     -2.053589   -1.602011   -0.647056
H     -2.456069   -0.582590   -2.086167
H     -2.139458    1.461271   -0.898339
H     -1.058805    0.077851    1.571490
H     -0.679798    1.691303    0.928818
H     -3.161118    2.482365    1.254480
H     -4.672633    1.582706    1.858927
H     -3.700235   -1.571348    1.075055
H     -4.539711   -1.033099   -0.439217
H     -5.195904   -0.579919    1.168196
H      0.695063   -3.248979   -0.066979
H      4.458381    0.021648   -0.634213
H      1.409538    1.246458    2.193367
