32

C     -4.219425   -0.743929   -0.567191
C     -3.048775   -0.176924    0.167176
O     -3.242171    0.547170    1.180956
N     -1.718535   -0.434373   -0.303776
C     -0.523187    0.135555    0.328564
C     -0.000837    1.295448   -0.525009
C      1.309180    1.808351    0.075285
C      2.340013    0.662020    0.260323
O      1.770938   -0.399740    1.029628
C      0.578907   -0.940227    0.465603
C      0.103932   -2.089626    1.368658
O      1.111723   -3.055339    1.502983
C      2.899260    0.148346   -1.058760
O      3.128130   -1.081895   -1.206286
O      3.290562    1.018190   -2.075597
O      3.436453    1.178537    0.971389
O     -0.952699    2.327429   -0.545333
H     -4.054516   -1.825312   -0.756099
H     -5.149676   -0.622707    0.027609
H     -4.337375   -0.217123   -1.536818
H     -1.603874   -0.968279   -1.195600
H     -0.766474    0.517356    1.346215
H      0.184087    0.932416   -1.564153
H      1.715255    2.630418   -0.547838
H      1.086004    2.253873    1.070709
H      0.779100   -1.378477   -0.536471
H     -0.817749   -2.561146    0.957858
H     -0.139452   -1.693271    2.377742
H      1.134884   -3.562392    0.649637
H      3.273298    2.023447   -1.969759
H      3.140066    1.344009    1.905092
H     -0.707045    2.928194   -1.296735
