36

C     -4.619800    1.872945   -0.338406
C     -4.429084    0.359903   -0.498018
C     -4.697681   -0.081254   -1.941757
C     -3.046151   -0.068688   -0.042813
C     -1.888625    0.412262   -0.685300
C     -0.611394    0.008258   -0.254956
C     -0.495500   -0.887604    0.831501
C     -1.644107   -1.363944    1.467956
C     -2.908928   -0.959161    1.036010
O      0.700719   -1.283410    1.255108
C      1.832902   -0.870026    0.696854
N      3.019130   -1.321252    1.177194
C      4.215899   -0.936852    0.655934
C      4.247671   -0.013981   -0.417652
C      3.028063    0.443884   -0.944535
C      1.809788    0.023613   -0.390435
C      0.566041    0.468215   -0.871851
O      0.507317    1.270573   -1.845288
C      5.510961    0.521391   -0.973461
O      5.580582    0.835108   -2.192625
O      6.612167    0.737959   -0.150062
N      5.407028   -1.533155    1.179831
H     -4.418345    2.173079    0.712225
H     -3.938461    2.436806   -1.010195
H     -5.666774    2.151780   -0.584010
H     -5.197635   -0.132295    0.139211
H     -4.551883   -1.178538   -2.037670
H     -5.746360    0.155034   -2.222229
H     -4.018265    0.435063   -2.652581
H     -1.985985    1.098605   -1.517065
H     -1.557135   -2.050653    2.300685
H     -3.783036   -1.343384    1.546823
H      3.031661    1.150079   -1.766892
H      7.472903    1.121067   -0.522293
H      6.309832   -1.522843    0.658509
H      5.352484   -2.128584    2.035903
