32

C     -0.607808    1.542294   -0.147741
C      0.805509    2.039129   -0.287614
O      0.985165    3.273705   -0.449609
C      1.947270    1.096577   -0.104062
C      3.317587    1.483016   -0.091865
C      4.295534    0.546108    0.265764
C      3.952028   -0.772575    0.564770
C      2.615775   -1.172236    0.498428
C      1.622641   -0.254313    0.151279
O      0.296842   -0.694145    0.067427
C     -0.721854    0.072919   -0.584209
C     -2.098250   -0.458114   -0.211746
C     -3.197248   -0.258524   -1.070604
C     -4.471655   -0.704546   -0.707901
C     -4.669487   -1.336668    0.521287
C     -3.594903   -1.515872    1.394709
C     -2.318128   -1.071982    1.037444
O     -0.529392   -0.003211   -1.976806
O      4.948643   -1.680502    0.915923
O      3.764452    2.761001   -0.436461
H     -0.903606    1.644320    0.919424
H     -1.291671    2.171235   -0.759825
H      5.336625    0.843629    0.294560
H      2.346007   -2.199379    0.710021
H     -3.070824    0.246161   -2.020086
H     -5.308005   -0.553742   -1.378212
H     -5.657403   -1.678986    0.801132
H     -3.752323   -1.993325    2.353257
H     -1.505422   -1.203966    1.740308
H     -0.482223   -0.967029   -2.212260
H      4.732454   -2.645924    1.135381
H      3.213670    3.444948   -0.932113
