41

C     -1.311865   -0.205766   -2.270100
C     -1.090883   -0.522168   -0.763885
C      0.155973   -1.490126   -0.658419
C      0.949458   -1.387141    0.658950
C      1.375736    0.071171    0.919612
C      0.012680    0.678965    1.313689
C     -0.968158    0.822255    0.092134
C     -2.386030    1.117548    0.654352
C     -3.252476   -0.057106    0.481556
C     -2.402936   -1.114775   -0.178133
C     -2.716102   -2.547356    0.076638
O     -3.151864   -1.888305   -1.089870
O     -3.412176    1.097975   -0.311417
O     -0.582439    1.912719   -0.711205
C     -0.461748   -0.449330    2.175131
O     -1.256881   -0.345131    3.145730
O      0.071031   -1.650341    1.746534
C      2.309323    0.802153   -0.111461
C      3.619759   -0.000005   -0.270319
C      2.652596    2.210522    0.421636
O      1.696480    0.919832   -1.369672
H     -1.448035   -1.144427   -2.849245
H     -0.436877    0.322102   -2.702052
H     -2.205838    0.432054   -2.429467
H     -0.133896   -2.543131   -0.819722
H      0.865430   -1.309263   -1.491089
H      1.807112   -2.092869    0.674674
H      1.984249    0.040992    1.858601
H      0.120432    1.618923    1.897741
H     -2.588561    1.799881    1.507057
H     -4.020996   -0.225211    1.264921
H     -3.575863   -2.757827    0.746638
H     -2.001000   -3.347154   -0.187464
H     -0.621784    2.733471   -0.153131
H      4.335048    0.542475   -0.925348
H      4.107656   -0.163962    0.714619
H      3.418079   -0.986151   -0.738686
H      1.740708    2.837411    0.492922
H      3.119446    2.149332    1.428310
H      3.363963    2.725547   -0.259209
H      2.321246    1.392214   -1.980804
