19

C      1.263501    0.522923   -0.736408
C      0.549448    0.155745    0.583152
C     -0.991525    0.325250    0.500159
C     -1.684130   -0.667874   -0.456677
O     -3.065271   -0.427847   -0.489409
O     -1.558750    0.242389    1.784377
O      0.901977   -1.135091    1.021625
C      2.748744    0.554624   -0.548669
O      3.438924   -0.473585   -0.776646
O      3.365304    1.706648   -0.077133
H      0.929602    1.526823   -1.076833
H      1.014139   -0.206260   -1.536331
H      0.903054    0.874464    1.355947
H     -1.195264    1.350812    0.121073
H     -1.523621   -1.709477   -0.108423
H     -1.265788   -0.584441   -1.483865
H     -3.199660    0.387448   -1.039979
H     -1.413874   -0.681387    2.118409
H      0.783193   -1.761163    0.261142
