38

C     -1.815960    2.661041    0.970827
C     -1.779805    1.450073    0.072299
C     -2.332028    1.529765   -1.152537
C     -2.332665    0.387339   -2.079713
O     -2.834337    0.520530   -3.227230
C     -1.708257   -0.921134   -1.691643
C     -1.643089   -1.092438   -0.150071
C     -1.006510    0.196113    0.506355
C      0.442977    0.382044    0.056763
C      1.484967   -0.170337    0.696696
C      2.889069   -0.005545    0.244916
C      3.860760   -0.062217    1.178829
C      5.303337    0.159334    0.944368
O      6.125348   -0.168825    1.839248
O      5.776074    0.771122   -0.210224
C      3.192092    0.188777   -1.222059
O     -1.078292    0.059517    1.912401
C     -3.076242   -1.329108    0.400500
C     -0.817041   -2.362941    0.167959
H     -2.330245    2.407414    1.921083
H     -2.358937    3.513657    0.509272
H     -0.779299    2.991297    1.191429
H     -2.822764    2.441443   -1.472685
H     -0.685573   -0.951242   -2.126599
H     -2.284536   -1.756273   -2.147951
H      0.622187    0.982759   -0.827226
H      1.306468   -0.734825    1.604528
H      3.579935   -0.273885    2.205165
H      2.338723   -0.129825   -1.855888
H      4.049334   -0.444981   -1.531113
H      3.412663    1.257667   -1.424705
H     -0.533429    0.774882    2.334334
H     -3.053174   -1.525371    1.493762
H     -3.545853   -2.208728   -0.090642
H     -3.736211   -0.454688    0.224349
H     -0.681854   -2.482388    1.264110
H     -1.331144   -3.270199   -0.217208
H      0.183313   -2.329826   -0.311700
