32

C     -2.420741   -0.937087    0.514785
C     -3.936201   -0.752538    0.643836
C     -4.480904   -0.022597   -0.549149
O     -5.672911   -0.212663   -0.909198
N     -3.670076    0.930642   -1.244857
C     -2.310987    1.165217   -0.858491
O     -1.641449    2.054923   -1.449144
C     -1.708482    0.410966    0.301593
N     -0.271726    0.197582    0.099315
C      0.773125    0.634383    1.031115
C      2.046379    0.169194    0.375964
C      1.778359   -0.471192   -0.816202
C      0.350655   -0.461033   -1.003170
O     -0.265796   -0.941867   -1.991001
C      2.787785   -0.995300   -1.620625
C      4.115379   -0.858723   -1.186656
C      4.404490   -0.207475    0.029202
C      3.366050    0.315777    0.826183
N      3.660138    0.977449    2.059893
H     -2.032175   -1.416248    1.439539
H     -2.213067   -1.622127   -0.335927
H     -4.419851   -1.749657    0.729152
H     -4.167482   -0.170324    1.561580
H     -4.075514    1.461788   -2.048195
H     -1.857106    1.028671    1.214936
H      0.764337    1.740840    1.127855
H      0.638504    0.142500    2.017849
H      2.556802   -1.493575   -2.553219
H      4.921609   -1.255783   -1.789639
H      5.434785   -0.111447    0.347618
H      4.647039    1.080983    2.385399
H      2.899031    1.368722    2.657830
