46

C      5.491102    0.435398   -0.407725
C      4.341874    0.694987   -1.395944
C      2.982041    0.776521   -0.683630
C      3.011282   -0.132087    0.584845
C      1.610571   -0.181522    1.237040
C      0.570311   -0.516909    0.158000
C      0.690048    0.529821   -0.956747
O      1.950939    0.395430   -1.589266
C     -0.462913    0.438254   -1.976843
C     -0.963192   -0.956891   -2.255906
C     -1.488277   -1.785428   -1.329118
C     -1.529163   -1.556211    0.184070
O     -0.746597   -0.474654    0.674257
C     -2.955439   -1.377802    0.627297
C     -3.661503   -0.276868    0.327795
C     -5.093627   -0.122707    0.785357
C     -5.649427    1.271480    0.449520
O     -4.917652    2.270961    1.107707
O     -5.902082   -1.119561    0.212305
O      1.572170   -1.120057    2.283906
O      3.964294    0.290987    1.555540
C      5.122124    0.914274    1.007381
H      5.711956   -0.653972   -0.369180
H      6.409954    0.956459   -0.753479
H      4.523125    1.647992   -1.939783
H      4.329908   -0.122912   -2.149784
H      2.837808    1.836570   -0.365065
H      3.276249   -1.166235    0.265006
H      1.379599    0.818233    1.668133
H      0.852970   -1.520691   -0.249146
H      0.594462    1.551133   -0.512679
H     -0.141195    0.906281   -2.932192
H     -1.321602    1.039186   -1.608729
H     -0.959260   -1.288925   -3.290106
H     -1.881312   -2.735494   -1.680278
H     -1.161253   -2.491514    0.663196
H     -3.420400   -2.171211    1.207055
H     -3.195580    0.519783   -0.244158
H     -5.124618   -0.248634    1.889759
H     -6.723051    1.329374    0.740817
H     -5.589573    1.448382   -0.646010
H     -5.200824    2.250747    2.059070
H     -5.855521   -1.012504   -0.774481
H      1.769250   -2.014000    1.899013
H      5.979712    0.708680    1.681895
H      4.972310    2.015856    0.999624
