28

C      3.854179    0.143038   -0.258481
C      2.366470    0.083500   -0.044113
C      1.710796    1.201580    0.321167
C      0.229709    1.235206    0.604170
C     -0.550265    0.047567   -0.011382
C      0.234551   -1.253369    0.262908
C      1.628333   -1.193762   -0.369703
C     -2.012125   -0.024780    0.541381
C     -2.817272   -1.169739   -0.102154
C     -2.772140    1.297182    0.322814
H      4.096998    0.920227   -1.013966
H      4.244454   -0.831281   -0.621394
H      4.360838    0.391944    0.697794
H      2.276232    2.108515    0.519483
H     -0.161793    2.190424    0.195565
H      0.092696    1.246145    1.707245
H     -0.599226    0.199586   -1.113912
H      0.328443   -1.415846    1.359668
H     -0.282068   -2.131293   -0.174546
H      1.534093   -1.272984   -1.474504
H      2.216904   -2.066673   -0.013332
H     -1.973795   -0.213300    1.637578
H     -2.744691   -1.126754   -1.210013
H     -3.888798   -1.107455    0.184876
H     -2.458508   -2.156356    0.254685
H     -2.738619    1.595269   -0.747077
H     -3.834636    1.194916    0.631079
H     -2.340762    2.108492    0.944561
