38

C      3.743206    0.445314   -0.866101
C      2.313786    0.071946   -1.273122
N      1.590934   -0.468070   -0.116677
C      2.250690   -1.514347    0.670356
C      3.684845   -1.088093    1.005869
N      4.417458   -0.678000   -0.200306
C      0.167026   -0.275550   -0.011905
N     -0.578465   -1.321216    0.198903
C     -2.001306   -1.429893    0.316512
C     -2.509892   -2.515941    1.043856
C     -3.881128   -2.779273    1.067616
C     -4.756475   -1.976990    0.336535
C     -4.260684   -0.906108   -0.409247
C     -2.889804   -0.614994   -0.414619
O     -2.462007    0.478071   -1.164871
C     -1.583300    1.441339   -0.675647
C     -0.369451    1.109771   -0.040171
C      0.424954    2.146968    0.488519
C      0.039879    3.483231    0.354995
C     -1.139464    3.802757   -0.316984
C     -1.943323    2.786105   -0.832656
Cl     1.051123    4.758357    1.009566
H      4.318404    0.732370   -1.772475
H      3.722811    1.327760   -0.188999
H      2.342834   -0.696020   -2.076184
H      1.807150    0.972976   -1.680267
H      2.264512   -2.461138    0.087989
H      1.700857   -1.691316    1.620775
H      4.216109   -1.937882    1.485887
H      3.665313   -0.249539    1.736782
H      4.463804   -1.488512   -0.862480
H     -1.835217   -3.169722    1.582737
H     -4.262167   -3.617074    1.637198
H     -5.818207   -2.187190    0.343570
H     -4.946167   -0.288077   -0.975384
H      1.356185    1.919370    0.993278
H     -1.438287    4.836681   -0.433961
H     -2.866535    3.041930   -1.337275
