37

C      4.366247    2.298395    1.161936
O      2.998686    1.926354    1.032870
C      2.537834    0.749389    0.419761
C      1.142821    0.483431    0.345555
C      0.680699   -0.710871   -0.271256
C      1.588078   -1.619412   -0.838426
C      2.942329   -1.328297   -0.750838
C      3.403442   -0.201102   -0.148173
O      4.785477   -0.193326   -0.217169
C      5.213502   -1.378584   -0.898980
O      4.004652   -2.074955   -1.222607
O     -0.688621   -0.991149   -0.323191
C     -1.635794   -0.302818    0.496578
C     -1.333059    1.207597    0.524420
C      0.122086    1.430836    0.858658
O      0.460605    2.453319    1.514465
O     -2.155336    1.828725    1.480151
C     -3.034159   -0.566186   -0.010197
C     -3.325699   -0.475849   -1.383558
C     -4.627747   -0.692769   -1.844560
C     -5.650108   -0.992549   -0.940670
C     -5.373049   -1.072055    0.426506
C     -4.072439   -0.855901    0.892464
H      4.828514    2.410542    0.158678
H      4.426835    3.272906    1.688159
H      4.914151    1.540310    1.760204
H      1.245685   -2.527057   -1.318138
H      5.845789   -1.998596   -0.229491
H      5.761668   -1.110421   -1.826343
H     -1.533062   -0.700222    1.532106
H     -1.524051    1.635402   -0.487954
H     -2.223929    2.785556    1.223593
H     -2.545870   -0.235448   -2.095565
H     -4.844755   -0.625187   -2.902775
H     -6.657696   -1.158974   -1.299154
H     -6.167182   -1.298346    1.126262
H     -3.876543   -0.912686    1.956012
