47

C      2.655269   -2.662442   -2.075076
O      1.522276   -2.040808   -1.476899
C      1.584242   -1.057988   -0.474685
C      0.381053   -0.516529    0.018802
C      0.429947    0.466094    1.023835
C      1.653373    0.913079    1.521640
C      2.857497    0.393490    1.031447
C      2.814951   -0.601621    0.039201
N      4.099401    0.881778    1.571741
S      5.659727    0.590388    0.867959
O      5.959730   -0.882238    0.870324
O      6.701250    1.296076    1.689615
C      5.718295    1.235340   -0.790875
N     -0.881574   -0.981187   -0.500502
C     -2.138214   -0.353627   -0.195485
C     -2.462131    0.909634   -0.740418
C     -1.595836    1.590191   -1.619523
C     -1.950155    2.841734   -2.131370
C     -3.169469    3.425408   -1.781772
C     -4.044876    2.758014   -0.922581
C     -3.701688    1.504116   -0.403811
N     -4.568198    0.858983    0.418282
C     -4.291111   -0.361320    0.944345
C     -5.223277   -0.979841    1.785600
C     -4.945965   -2.231266    2.340087
C     -3.735972   -2.869534    2.059478
C     -2.796943   -2.261930    1.220770
C     -3.064937   -1.002499    0.648491
H      3.242551   -3.207306   -1.306054
H      3.290240   -1.900171   -2.574262
H      2.308685   -3.389742   -2.837417
H     -0.478411    0.888484    1.432632
H      1.662079    1.672810    2.293272
H      3.732235   -1.028682   -0.329773
H      4.071411    1.527671    2.392433
H      5.456756    2.313396   -0.776858
H      4.999813    0.693946   -1.438478
H      6.741998    1.111263   -1.200193
H     -0.914724   -1.859969   -1.064406
H     -0.648900    1.161831   -1.920196
H     -1.278079    3.359514   -2.803546
H     -3.438877    4.394395   -2.181738
H     -4.991762    3.215536   -0.663322
H     -6.162835   -0.491013    2.012333
H     -5.668956   -2.706119    2.990697
H     -3.523889   -3.837584    2.494800
H     -1.865998   -2.779759    1.028663
