26

C     -1.830708    0.456875    0.993461
C     -2.347016   -0.918709    0.572560
C     -1.290255   -1.655643   -0.258150
N     -0.889445   -0.871968   -1.438139
C     -0.334259    0.448039   -1.074830
C     -1.357827    1.248865   -0.230806
C      1.066371    0.296006   -0.480486
C      1.989320   -0.544049   -1.132902
N      3.256241   -0.683535   -0.660319
C      3.686359   -0.015560    0.440252
C      2.824443    0.850271    1.110089
C      1.518558    1.015339    0.645552
H     -2.645310    1.016154    1.501834
H     -1.000332    0.333037    1.720282
H     -2.589585   -1.515871    1.477776
H     -3.277734   -0.803272   -0.025198
H     -1.709346   -2.628200   -0.594677
H     -0.401417   -1.881518    0.370863
H     -1.728790   -0.731877   -2.049361
H     -0.194476    1.023851   -2.016818
H     -0.952611    2.236872    0.070312
H     -2.243870    1.465770   -0.867800
H      1.700821   -1.090102   -2.021804
H      4.701235   -0.150381    0.789725
H      3.167385    1.394753    1.980498
H      0.882247    1.704852    1.178088
