19

C      3.324505    0.413273    1.295407
C      3.344359   -0.222891    0.070725
O      2.126086   -0.284280   -0.415811
C      1.304633    0.284603    0.436565
C      2.007576    0.742331    1.534398
C     -0.146454    0.403494    0.229739
O     -0.856585    0.966798    1.106447
N     -0.750463   -0.116327   -0.963693
C     -2.188664   -0.045202   -1.208720
C     -2.910604   -1.033645   -0.344635
O     -2.848844   -2.261806   -0.614844
O     -3.627759   -0.614429    0.772360
H      4.171391    0.613199    1.938005
H      4.221172   -0.616401   -0.425758
H      1.612588    1.252774    2.403013
H     -0.144810   -0.548157   -1.697712
H     -2.555791    0.986631   -1.021370
H     -2.393327   -0.285326   -2.274417
H     -3.689011    0.365362    1.021768
