39

C     -4.717364   -1.138954   -0.471359
C     -3.589284   -0.256376    0.073871
C     -3.898113    0.283416    1.479042
C     -3.594278    1.730761    1.350524
N     -3.311042    2.095428    0.160550
C     -3.367223    1.012443   -0.782729
C     -2.093442    0.947114   -1.580577
O     -2.155174    0.874032   -2.837957
N     -0.820009    0.938102   -0.919998
C      0.429976    0.833933   -1.673822
C      1.645869    0.750968   -0.741469
C      1.721841   -0.605075   -0.020122
C      2.757566   -0.632471    1.122905
C      4.240650   -0.527827    0.696078
C      4.596080   -1.568430   -0.336227
O      4.598082   -1.276759   -1.562079
O      4.878417   -2.874873    0.051905
N      4.563485    0.817720    0.216322
H     -4.458445   -1.492191   -1.492057
H     -5.673776   -0.574802   -0.517407
H     -4.853964   -2.025055    0.184280
H     -2.660074   -0.869110    0.126523
H     -4.964880    0.155514    1.764447
H     -3.239103   -0.182101    2.242949
H     -3.614949    2.430402    2.179018
H     -4.228415    1.192291   -1.465309
H     -0.796897    1.006012    0.123042
H      0.399989   -0.063954   -2.329347
H      0.534514    1.731611   -2.320763
H      2.555775    0.883216   -1.363328
H      1.604391    1.582266   -0.003921
H      0.731695   -0.835364    0.429064
H      1.933852   -1.410903   -0.754817
H      2.523218    0.174821    1.850847
H      2.627402   -1.591720    1.670780
H      4.859623   -0.728023    1.600320
H      4.861603   -3.147172    1.027445
H      5.592332    0.863407    0.030966
H      4.380072    1.497705    0.989831
