23

C     -2.980420   -0.968357    0.244186
C     -2.553058    0.490698    0.089665
C     -1.436613    0.684359   -0.951915
C     -0.115277   -0.035252   -0.626290
C      0.544409    0.481279    0.661329
C      1.897781   -0.137542    0.863497
C      2.946119    0.213707    0.111937
C      4.279981   -0.372812    0.309035
O      5.234973   -0.005108   -0.423603
O      4.503624   -1.329420    1.292980
H     -3.887727   -1.021332    0.882110
H     -2.180699   -1.560544    0.735388
H     -3.217781   -1.411768   -0.746161
H     -2.245597    0.898394    1.075237
H     -3.437384    1.077307   -0.241185
H     -1.236767    1.772856   -1.058989
H     -1.801187    0.324605   -1.938865
H      0.574662    0.133989   -1.481642
H     -0.279472   -1.131461   -0.555018
H      0.641923    1.588666    0.630655
H     -0.087772    0.213280    1.533667
H      2.015175   -0.860792    1.661814
H      2.821108    0.955247   -0.668745
