15

C     -2.486250    0.501746    0.286891
C     -1.062953    0.965780    0.214396
O     -0.786709    1.979894   -0.408966
C      0.024438    0.199817    0.913699
C      0.924851   -0.462076   -0.089459
O      0.647664   -1.623619   -0.492121
C      2.098249    0.231293   -0.644983
O      2.380850    1.404118   -0.280069
O      2.901303   -0.411876   -1.582045
H     -2.562046   -0.530626   -0.114110
H     -2.827523    0.509910    1.343121
H     -3.147166    1.166863   -0.309024
H      0.603427    0.887037    1.567181
H     -0.420514   -0.578564    1.571402
H      3.712378    0.050000   -1.975912
