40

C     -6.555386   -0.904472    0.057458
C     -5.038941   -0.788388    0.182370
C     -4.476248    0.218484   -0.831427
C     -2.940246    0.267711   -0.824032
C     -2.375235    0.893280    0.463521
C     -0.870683    1.190766    0.364462
C     -0.016965   -0.085780    0.331735
C      1.478437    0.252508    0.365282
C      2.332279   -1.023197    0.309735
C      3.833333   -0.737867    0.474409
C      4.439542   -0.031006   -0.750582
C      5.967444    0.077422   -0.659075
C      6.393904    1.002329    0.439458
O      6.347009    2.249328    0.271324
O      6.809205    0.487773    1.661137
H     -7.034012    0.080905    0.242106
H     -6.935770   -1.630181    0.806919
H     -6.833334   -1.263456   -0.956410
H     -4.587329   -1.789611    0.010311
H     -4.796569   -0.463679    1.216328
H     -4.804557   -0.077630   -1.852033
H     -4.886989    1.231652   -0.627043
H     -2.613811    0.875722   -1.695962
H     -2.540579   -0.760085   -0.959023
H     -2.559618    0.222006    1.329381
H     -2.900667    1.853198    0.660924
H     -0.667018    1.806045   -0.539362
H     -0.581749    1.793667    1.253304
H     -0.234473   -0.656890   -0.596123
H     -0.269445   -0.721855    1.208570
H      1.707710    0.810425    1.299805
H      1.718254    0.901389   -0.503923
H      2.153159   -1.557868   -0.648908
H      2.020249   -1.699935    1.135376
H      3.997721   -0.127294    1.388765
H      4.352225   -1.710433    0.621224
H      4.008791    0.987183   -0.861107
H      4.188035   -0.609259   -1.666341
H      6.359774    0.463896   -1.624561
H      6.412553   -0.928317   -0.497993
