46

C     -6.497846    0.951842   -0.569642
C     -5.769002   -0.355731   -0.229886
C     -6.124654   -0.829410    1.185860
C     -4.241124   -0.260330   -0.455214
C     -3.517412    0.728975    0.480288
C     -2.032214    0.898894    0.121362
C     -1.193237   -0.342160    0.462127
C      0.298257   -0.079936    0.219932
C      1.137625   -1.320601    0.560211
C      2.623211   -1.143675    0.208508
C      3.329876   -0.125939    1.121308
C      4.857685   -0.145256    0.955551
C      5.311359    0.407062   -0.403981
C      6.838709    0.492966   -0.478198
C      7.270146    1.017249   -1.811258
O      7.399449    2.256478   -1.993138
O      7.481271    0.140654   -2.867972
H     -6.281660    1.741294    0.180046
H     -7.595129    0.778394   -0.580858
H     -6.195681    1.312868   -1.575706
H     -6.146158   -1.128834   -0.936140
H     -5.568256   -1.758678    1.432532
H     -5.884459   -0.051209    1.940604
H     -7.211677   -1.050203    1.247858
H     -4.055895    0.032285   -1.512135
H     -3.811117   -1.275199   -0.318324
H     -3.993235    1.728249    0.400527
H     -3.602647    0.394913    1.536260
H     -1.639016    1.765810    0.696752
H     -1.930281    1.140031   -0.959575
H     -1.514322   -1.195843   -0.171757
H     -1.348569   -0.613186    1.529677
H      0.453859    0.191418   -0.847523
H      0.620845    0.773232    0.854218
H      0.749933   -2.187208   -0.019201
H      1.032354   -1.564511    1.640196
H      3.119622   -2.132858    0.316006
H      2.713139   -0.833297   -0.854442
H      3.098391   -0.368105    2.181620
H      2.952678    0.899057    0.917828
H      5.238250   -1.181698    1.089426
H      5.297364    0.480943    1.762778
H      4.949432   -0.258316   -1.217207
H      4.879302    1.421154   -0.554912
H      7.280588   -0.515603   -0.325516
H      7.220245    1.164017    0.322340
