32

C     -5.319061   -0.453145    0.686618
C     -3.897217   -0.910119    0.373731
C     -2.954354    0.287316    0.208130
C     -1.526763   -0.175326   -0.107395
C     -0.581494    1.025916   -0.262185
C      0.830508    0.617837   -0.713743
C      1.639613   -0.054334    0.410469
C      3.060485   -0.460792   -0.037251
C      3.994419    0.757472   -0.149514
C      5.367390    0.343690   -0.582263
O      5.620656    0.168662   -1.803251
O      6.355115    0.108803    0.365909
O      3.597524   -1.358954    0.901247
H     -5.712388    0.177184   -0.139253
H     -5.338108    0.128059    1.633151
H     -5.977703   -1.339740    0.801116
H     -3.537896   -1.558864    1.202211
H     -3.910181   -1.509546   -0.562683
H     -3.323685    0.933543   -0.618681
H     -2.948363    0.883617    1.147339
H     -1.172512   -0.828648    0.717802
H     -1.533375   -0.765355   -1.050255
H     -0.523732    1.589379    0.695009
H     -1.000711    1.712254   -1.030612
H      1.352395    1.540484   -1.041423
H      0.763268   -0.060196   -1.592572
H      1.700261    0.621552    1.291730
H      1.105746   -0.973589    0.730714
H      3.002816   -0.955716   -1.036341
H      4.062813    1.273732    0.832748
H      3.601799    1.484343   -0.890200
H      3.202732   -2.249519    0.708323
