10

C     -0.687823   -1.040098    0.576684
C      0.009143   -0.042200    0.025949
C     -0.680349    1.057921   -0.681648
O     -0.014720    1.994066   -1.197485
O     -2.066823    1.076790   -0.788506
N      1.438810   -0.042195    0.124456
H     -0.182587   -1.845489    1.094743
H     -1.768549   -1.074195    0.522680
H      1.945484   -0.809942    0.620032
H      2.007414    0.725341   -0.296906
