35

C      3.381904    1.148234   -0.581213
C      4.663903    1.643675   -0.328674
C      5.683293    0.779942    0.094039
C      5.416642   -0.585902    0.255512
C      4.129218   -1.081419    0.001856
C      3.099486   -0.214592   -0.392110
C      1.766570   -0.768047   -0.698715
C      0.615462   -0.266581   -0.231073
C     -0.722024   -0.762997   -0.548567
C     -1.617704   -0.040638    0.138874
O     -0.990599    0.922894    0.931046
C      0.371627    0.798294    0.731983
O      1.235534    1.462993    1.361317
C     -3.092831   -0.205928    0.103471
C     -3.894759    0.620954    0.909878
C     -5.291537    0.494274    0.902769
C     -5.900702   -0.467917    0.081801
C     -5.110003   -1.292375   -0.722659
C     -3.718372   -1.166056   -0.715407
O     -7.286724   -0.618636    0.052227
O     -6.073965    1.320699    1.708025
O      6.435030   -1.444617    0.665384
O      6.962878    1.269718    0.349267
H      2.614321    1.824816   -0.936188
H      4.866410    2.697703   -0.470045
H      3.929436   -2.139629    0.121686
H      1.725795   -1.656686   -1.317446
H     -0.935184   -1.575042   -1.229378
H     -3.438791    1.367523    1.548450
H     -5.576618   -2.035067   -1.357524
H     -3.144915   -1.822117   -1.353899
H     -7.902501   -0.045484    0.616474
H     -5.659575    2.023042    2.309594
H      6.273381   -2.437158    0.790362
H      7.185913    2.252125    0.239579
