24

C     -2.845476   -0.661544   -1.038261
C     -1.507820   -1.057044   -0.945124
C     -0.616581   -0.368436   -0.104038
C     -1.091327    0.723722    0.640967
C     -2.428962    1.119175    0.547759
C     -3.320028    0.430346   -0.293027
C     -4.736479    0.845657   -0.394574
O     -5.166641    1.824461    0.271912
O     -5.613455    0.160662   -1.227916
C      0.800308   -0.782591   -0.002716
O      1.222294   -1.764043   -0.674891
O      1.670206   -0.086681    0.846811
C      3.060696   -0.382185    0.964005
C      3.827541    0.153941   -0.241622
O      5.195427   -0.092168   -0.072929
H     -3.507176   -1.212335   -1.694941
H     -1.172460   -1.902680   -1.532586
H     -0.429961    1.275259    1.297349
H     -2.764692    1.965038    1.134726
H      3.446957    0.107946    1.882820
H      3.215036   -1.478605    1.067625
H      3.469196   -0.347119   -1.167740
H      3.650554    1.249136   -0.330643
H      5.642844    0.280084   -0.876822
