10

C     -1.223079   -0.440045    0.213359
O     -2.356662    0.007914    0.149306
C     -0.040303    0.484753    0.103263
C      1.248725   -0.255690    0.323429
O      1.656654   -1.094675   -0.523250
O      1.988101   -0.033643    1.478491
O     -0.030020    1.138994   -1.140719
H     -1.083234   -1.508408    0.350507
H     -0.137022    1.257558    0.895878
H     -0.023160    0.443242   -1.850264
