25

C     -3.274946    0.373187   -1.069936
C     -3.997300    0.750798    0.234210
N     -2.951005    0.806594    1.248624
C     -1.819524    0.507831    0.714058
N     -1.888954    0.232882   -0.671984
N     -0.600288    0.499469    1.466058
C      0.651384    0.092387    0.897061
C      0.848121   -1.234124    0.462537
C      2.077605   -1.615202   -0.086140
C      3.122725   -0.689665   -0.197142
C      2.934837    0.623086    0.252648
C      1.709665    1.014300    0.803084
Cl     1.510970    2.677039    1.340448
N      4.377123   -1.085014   -0.758828
Cl    -0.407189   -2.453684    0.644459
H     -3.653125   -0.589624   -1.475416
H     -3.371770    1.179432   -1.828314
H     -4.488279    1.743423    0.144330
H     -4.747204   -0.021323    0.509912
H     -1.089890    0.015358   -1.307507
H     -0.599430    0.932359    2.417105
H      2.223172   -2.635898   -0.417844
H      3.741099    1.341914    0.173718
H      5.163845   -0.403254   -0.843436
H      4.528358   -2.062272   -1.094951
