46

C     -4.940912   -0.962556    2.593781
C     -4.481676   -0.652456    1.171964
C     -4.885543    0.770077    0.758072
C     -4.606782    1.064810   -0.727090
C     -3.125316    0.979614   -1.136807
C     -2.238479    1.986159   -0.383493
C     -0.829547    2.099082   -0.986847
C      0.008475    0.829630   -0.771449
C      1.451662    1.037491   -1.255702
C      2.290839   -0.249241   -1.193380
C      2.697588   -0.619748    0.243081
C      3.468634   -1.950037    0.323127
C      4.811192   -1.978029   -0.436099
C      5.823275   -0.913962    0.016161
C      6.195384   -1.072646    1.458236
O      5.701219   -0.308859    2.328750
O      7.063016   -2.086266    1.844678
H     -4.487621   -0.244721    3.310325
H     -6.047901   -0.902437    2.664344
H     -4.623574   -1.989846    2.871275
H     -3.376968   -0.760170    1.132497
H     -4.937024   -1.391713    0.477653
H     -5.977707    0.896552    0.925826
H     -4.369967    1.514169    1.401608
H     -5.188023    0.350726   -1.350439
H     -4.986942    2.082679   -0.963075
H     -2.753365   -0.054162   -0.983298
H     -3.065515    1.190046   -2.226986
H     -2.154500    1.696697    0.685948
H     -2.712857    2.990875   -0.428067
H     -0.902410    2.325679   -2.073237
H     -0.315668    2.956072   -0.498421
H     -0.443955   -0.013668   -1.335430
H      0.007764    0.576893    0.309683
H      1.942201    1.836966   -0.657918
H      1.425521    1.378039   -2.314325
H      1.732639   -1.088984   -1.662246
H      3.208207   -0.074645   -1.794156
H      3.294720    0.200019    0.694568
H      1.785698   -0.735186    0.864856
H      2.822756   -2.761824   -0.076968
H      3.651343   -2.189123    1.392997
H      5.267087   -2.983195   -0.299636
H      4.629074   -1.865515   -1.525439
H      6.744513   -1.020138   -0.595700
H      5.429442    0.106852   -0.173235
