42

C      4.719325   -1.217531   -1.225100
O      4.443142    0.148070   -0.930335
C      3.173307    0.654148   -0.608166
C      3.046233    2.021277   -0.310284
C      1.791963    2.561216   -0.018997
C      0.652404    1.747386   -0.001261
C     -0.711510    2.357894    0.224326
C     -1.746026    1.619734   -0.635500
C     -1.712412    0.134941   -0.290634
C     -0.457316   -0.497879   -0.119901
C      0.773614    0.354538   -0.214710
C      2.029495   -0.167369   -0.579081
C     -0.425858   -1.867838    0.248476
C     -1.622614   -2.602120    0.327301
C     -2.849038   -1.963738    0.145278
C     -2.901388   -0.590541   -0.110209
C     -4.218595    0.121079   -0.152406
C     -4.025283    1.554978    0.340832
N     -3.071550    2.271268   -0.514110
O     -1.613051   -3.965926    0.620603
O      0.770726   -2.503681    0.583557
C      1.339839   -2.372600    1.880154
O      4.156778    2.865397   -0.313885
H      5.805433   -1.333988   -1.417630
H      4.162594   -1.532511   -2.132792
H      4.440296   -1.858747   -0.362138
H      1.704741    3.623191    0.176373
H     -0.707622    3.434063   -0.056846
H     -0.978156    2.276060    1.300540
H     -1.414515    1.709499   -1.696758
H      2.116466   -1.201469   -0.870648
H     -3.764934   -2.532828    0.250293
H     -4.958857   -0.387305    0.503316
H     -4.607102    0.121452   -1.193532
H     -3.661745    1.556564    1.392492
H     -5.002784    2.083687    0.322339
H     -3.494844    2.359049   -1.468644
H     -0.753526   -4.482311    0.763628
H      0.645606   -2.787535    2.641044
H      1.541862   -1.304605    2.106834
H      2.295024   -2.935104    1.917087
H      5.089879    2.530139   -0.520904
