28

C      0.062687   -1.486778   -1.913625
C     -1.364502   -1.034738   -1.547093
C     -1.727690   -1.269480   -0.075232
N     -1.189629   -0.194162    0.753974
C     -1.314031   -0.100446    2.045580
N     -0.719619    1.009097    2.718442
N     -2.027980   -1.083534    2.806436
C      1.174135   -0.726605   -1.180739
N      1.037448    0.712019   -1.395286
C      1.801716    1.627106   -0.873675
N      2.895436    1.292038   -0.009380
N      1.538610    2.998692   -1.167947
H      0.170325   -2.573211   -1.703612
H      0.203101   -1.348453   -3.007874
H     -1.513218    0.034842   -1.812187
H     -2.071692   -1.621124   -2.173306
H     -1.332182   -2.251962    0.263989
H     -2.835560   -1.278673    0.019317
H     -0.188290    1.731418    2.182626
H     -0.804441    1.109576    3.754081
H     -2.486790   -1.908895    2.362968
H     -2.105603   -0.983284    3.842635
H      2.156181   -1.066527   -1.575610
H      1.137508   -0.960236   -0.095585
H      3.483423    2.049978    0.402395
H      3.141076    0.305927    0.226277
H      0.744531    3.264657   -1.792070
H      2.135050    3.752758   -0.761109
