12

C     -0.583002   -0.280893   -0.686042
C      0.855218    0.053080   -0.281206
N      1.070601   -0.214238    1.138495
C     -1.565531    0.601541    0.019752
O     -1.835990    1.742373   -0.439422
O     -2.149349    0.181865    1.208341
H     -0.803105   -1.345232   -0.453498
H     -0.692722   -0.145545   -1.783832
H      1.557931   -0.559716   -0.888878
H      1.062878    1.125193   -0.493857
H      1.040924   -1.249689    1.284577
H      2.042147    0.091262    1.375571
