27

C     -0.794675   -0.377208    0.409251
C     -1.993865   -1.038927   -0.285835
C     -3.199880   -1.185278    0.651032
C     -3.800980    0.143656    0.992190
O     -3.576766    0.669866    2.115032
O     -4.584505    0.810329    0.055532
C      0.414550   -0.302796   -0.533201
C      1.615971    0.395556    0.134744
C      2.783460    0.546020   -0.857862
C      3.926364    1.286445   -0.235727
O      3.942572    2.546438   -0.245462
O      4.950429    0.582258    0.389711
O      2.026644   -0.304606    1.284518
H     -0.524852   -0.966908    1.312526
H     -1.071039    0.651415    0.727833
H     -1.697051   -2.053831   -0.630186
H     -2.286196   -0.448635   -1.182451
H     -2.900363   -1.721172    1.578364
H     -3.974169   -1.801269    0.145581
H     -4.988538    1.715072    0.266083
H      0.124988    0.265894   -1.444558
H      0.705911   -1.329892   -0.846089
H      1.294659    1.414380    0.446212
H      3.133474   -0.455343   -1.190711
H      2.441855    1.101964   -1.758383
H      5.722579    1.069092    0.828935
H      2.309423   -1.212522    0.997882
