42

C      4.527232    0.417787    1.560369
C      5.697541    0.210013    0.830899
C      5.622432   -0.109244   -0.527399
C      4.384140   -0.218990   -1.168126
C      3.192001    0.049831   -0.446462
C      3.271640    0.332782    0.935372
C      2.030037    0.534170    1.718584
O      2.096522    0.915257    2.919879
C      0.711467    0.258788    1.098214
C     -0.450927    0.272129    1.876449
C     -1.699863    0.003537    1.311060
C     -1.808356   -0.308278   -0.064956
C     -0.624779   -0.383725   -0.841856
C      0.627501   -0.030218   -0.276816
C      1.858654    0.112892   -1.097946
O      1.768087    0.449115   -2.309083
O     -0.714671   -0.852175   -2.157400
C     -3.157822   -0.643015   -0.717478
C     -4.294444    0.369694   -0.431332
C     -3.898578    1.809239   -0.773020
O     -5.005714    2.649635   -0.603829
C     -3.587416   -2.090226   -0.411090
O     -3.908242   -2.260031    0.944075
O     -2.826517    0.035091    2.130827
O      4.382482   -0.628752   -2.503436
O      6.931956    0.311593    1.468879
H      4.602994    0.644522    2.616770
H      6.530975   -0.298175   -1.085782
H     -0.392429    0.493565    2.935100
H      0.081418   -1.165114   -2.696173
H     -3.037542   -0.603714   -1.821816
H     -4.643070    0.316309    0.618951
H     -5.170639    0.097477   -1.060959
H     -3.550534    1.859649   -1.829236
H     -3.075803    2.144846   -0.103887
H     -4.697273    3.562565   -0.841465
H     -4.485938   -2.339555   -1.015349
H     -2.784441   -2.798397   -0.724672
H     -3.090797   -2.598032    1.394570
H     -2.765579    0.252402    3.118723
H      3.553474   -0.938416   -2.991527
H      7.800820    0.163171    0.968904
