29

C     -4.077985    0.715801    1.216661
C     -2.863181    0.183056    0.536824
O     -2.942998   -0.878355   -0.139667
O     -1.673369    0.919295    0.579410
C     -0.428958    0.434902    0.150934
C      0.042317   -0.833811    0.545024
C      1.292288   -1.282074    0.077584
C      2.087650   -0.466732   -0.743195
C      1.614482    0.803590   -1.107059
C      0.363255    1.261911   -0.657151
O     -0.133390    2.530222   -0.998880
C      0.553307    3.475101   -1.813317
C      3.406552   -0.933643   -1.237147
O      3.891680   -0.437341   -2.288653
O      4.142960   -1.904338   -0.558827
O     -0.740420   -1.607866    1.417534
C     -0.385512   -2.900941    1.896592
H     -4.667672    1.322373    0.498443
H     -3.781176    1.353487    2.075500
H     -4.704032   -0.121276    1.591579
H      1.637002   -2.270463    0.341800
H      2.228638    1.436148   -1.733800
H     -0.070982    4.386177   -1.915894
H      0.730756    3.050611   -2.824022
H      1.517979    3.756920   -1.340889
H      3.866121   -2.266052    0.344581
H     -1.187110   -3.270310    2.568368
H     -0.281533   -3.607776    1.046487
H      0.563331   -2.848614    2.471179
