28

C     -5.291156    0.931615   -0.419492
C     -4.135339   -0.061765   -0.474919
N     -2.858711    0.604198   -0.217591
C     -1.621795   -0.117158   -0.215276
N     -0.458615    0.540193    0.028206
C      0.722287   -0.130589    0.032563
N      0.734931   -1.468729   -0.205396
C     -0.423892   -2.129167   -0.449386
N     -1.600429   -1.454961   -0.454551
Cl    -0.400809   -3.851503   -0.757476
N      1.940688    0.578357    0.294380
C      3.254178   -0.074520    0.281799
C      3.707565   -0.315398   -1.161206
C      4.280942    0.783614    1.027892
H     -6.247432    0.403175   -0.617593
H     -5.343149    1.401492    0.585660
H     -5.152827    1.721882   -1.187712
H     -4.110467   -0.533560   -1.480935
H     -4.300295   -0.853124    0.287850
H     -2.832964    1.632580   -0.029039
H      1.873902    1.596763    0.522991
H      3.185782   -1.052051    0.808614
H      2.987776   -0.977021   -1.686771
H      4.702669   -0.809107   -1.173867
H      3.773979    0.647095   -1.712457
H      5.264691    0.268092    1.056013
H      4.404222    1.769329    0.529675
H      3.944269    0.950268    2.073258
