49

C      6.299793    0.223952   -3.544685
C      5.587087    0.120864   -2.228912
C      6.098171    0.769818   -1.094703
C      5.454269    0.643880    0.139753
C      4.299049   -0.145116    0.260184
C      3.796728   -0.804366   -0.872864
C      4.440695   -0.678731   -2.107194
N      3.628741   -0.272508    1.529467
C      2.230668    0.060944    1.640479
O      1.676525    0.712085    0.712888
C      1.479101   -0.271062    2.881575
C      0.128939   -0.296034    2.960748
C     -0.789815   -0.201745    1.806209
C     -2.094241    0.036687    1.991803
C     -3.085300    0.103317    0.889584
C     -4.441270   -0.083027    1.192271
C     -5.412530   -0.019863    0.189704
C     -5.054269    0.242994   -1.147802
C     -3.691444    0.447347   -1.443804
C     -2.721029    0.383425   -0.439880
N     -6.061885    0.307949   -2.191218
C     -5.689752    0.128610   -3.600166
C     -7.470146    0.552400   -1.855350
C      2.289647   -0.574022    4.084761
O      1.749479   -0.674510    5.220154
N      3.699427   -0.774814    3.965556
C      4.353522   -0.704216    2.696901
O      5.567873   -1.033119    2.610932
H      5.579674    0.144985   -4.386844
H      7.044156   -0.595361   -3.626359
H      6.823803    1.199583   -3.631843
H      6.992692    1.376240   -1.166474
H      5.850118    1.167243    1.000872
H      2.912261   -1.424051   -0.794669
H      4.045408   -1.204819   -2.967442
H     -0.333668   -0.459286    3.927809
H     -0.418668   -0.408910    0.814665
H     -2.463098    0.155181    3.004997
H     -4.751169   -0.289945    2.209670
H     -6.443023   -0.188695    0.469373
H     -3.367342    0.675752   -2.449556
H     -1.693129    0.581055   -0.710735
H     -5.138270    1.021645   -3.961526
H     -5.053691   -0.775237   -3.710827
H     -6.583142   -0.011808   -4.244732
H     -8.071945    0.785390   -2.759141
H     -7.904507   -0.347504   -1.371945
H     -7.549362    1.422094   -1.169009
H      4.254868   -1.024691    4.814808
