28

C      0.125496    3.846390    0.588769
O     -0.905740    2.892857    0.353990
C     -0.686316    1.547524    0.016270
C      0.610226    1.018519   -0.124284
C      0.798272   -0.327960   -0.465961
C     -0.317062   -1.156151   -0.651620
C     -1.619484   -0.642239   -0.515813
C     -1.798176    0.708593   -0.184132
O     -3.096763    1.203831   -0.054231
O     -2.759666   -1.440553   -0.700085
C     -2.730543   -2.823969   -1.036299
C      2.188283   -0.896239   -0.583812
C      2.581495   -1.608068    0.680221
C      2.859871   -0.941373    1.804392
H     -0.335189    4.824539    0.836355
H      0.756155    3.524128    1.444160
H      0.748340    3.967666   -0.322578
H      1.477641    1.645692    0.031993
H     -0.160547   -2.197698   -0.899291
H     -3.286976    2.169766    0.183836
H     -2.208263   -3.398952   -0.242664
H     -3.771237   -3.198630   -1.119427
H     -2.221570   -2.969140   -2.012565
H      2.219729   -1.617742   -1.428766
H      2.928395   -0.098425   -0.813351
H      2.651495   -2.691819    0.675381
H      2.806865    0.142503    1.839298
H      3.145268   -1.483049    2.700215
