31

C     -4.169768    1.332461    1.004273
O     -3.261703    0.323768    0.630599
P     -2.492365    0.760462   -0.836800
S     -3.643682    0.926448   -2.121271
O     -1.354939   -0.431299   -1.286508
C     -1.873825   -1.697769   -0.964370
S     -1.444326    2.599101   -0.634263
C     -0.552485    2.152397    0.902387
N      0.374143    1.036625    0.685529
C      1.462291    1.159800   -0.136092
O      1.702064    2.254840   -0.718130
C      2.309577    0.059165   -0.325726
C      3.435802    0.107237   -1.168521
C      4.244464   -1.023984   -1.320989
C      3.938446   -2.204508   -0.637143
C      2.822561   -2.259266    0.203067
C      2.009503   -1.131000    0.359067
N      0.929363   -1.175311    1.173703
N      0.140879   -0.112646    1.325645
H     -4.585606    1.076055    1.999940
H     -5.024085    1.386058    0.296301
H     -3.677572    2.323279    1.101536
H     -2.852776   -1.880187   -1.460544
H     -1.957801   -1.826862    0.136337
H     -1.166878   -2.469246   -1.332207
H     -1.285593    1.902269    1.698670
H      0.014817    3.040783    1.252441
H      3.690728    1.011018   -1.708170
H      5.109607   -0.985574   -1.970280
H      4.566998   -3.077293   -0.758079
H      2.592160   -3.176822    0.730293
