34

C      3.774027   -0.268892   -1.621668
C      3.681672   -1.503337   -0.991099
S      3.050807   -1.264803    0.549744
C      2.911206    0.406502    0.430781
C      3.336395    0.800064   -0.830987
C      2.304022    1.300287    1.465640
N      0.915054    1.600339    1.121087
C     -0.092793    0.582827    0.984320
C     -0.213827   -0.408376    1.970349
C     -1.223481   -1.370797    1.904089
C     -2.146381   -1.350880    0.842130
C     -2.026234   -0.365015   -0.148628
C     -1.001522    0.596769   -0.100572
C     -0.877757    1.558579   -1.223460
N      0.259628    2.189613   -1.576520
N     -0.077609    2.894180   -2.641805
N     -1.349897    2.706177   -2.943965
N     -1.881408    1.865259   -2.071940
S     -3.439324   -2.559339    0.744589
O     -4.293109   -2.468594    1.977986
O     -2.827950   -3.929604    0.660669
N     -4.450607   -2.323106   -0.640394
Cl    -1.302079   -2.577083    3.184954
H      4.139554   -0.146705   -2.632441
H      3.957830   -2.455242   -1.423825
H      3.319773    1.825866   -1.175354
H      2.885583    2.246159    1.510799
H      2.362216    0.827332    2.467450
H      0.667141    2.591922    0.904806
H      0.464473   -0.421786    2.812766
H     -2.716681   -0.355485   -0.979533
H      0.573858    3.510720   -3.175191
H     -3.843489   -2.378600   -1.488578
H     -4.839090   -1.354951   -0.586883
