25

C      3.914255    0.004071   -0.880931
C      2.579633    0.716195   -0.680900
C      1.473869   -0.275734   -0.302294
C      0.134607    0.443404   -0.101885
C     -0.974639   -0.551212    0.273582
C     -2.324320    0.152563    0.537006
C     -2.867634    0.804270   -0.708984
O     -3.014493    2.054484   -0.745102
O     -3.208550    0.049253   -1.829128
N     -3.313361   -0.788692    1.066511
H      4.694150    0.745900   -1.153731
H      4.222850   -0.507566    0.055595
H      3.833915   -0.743732   -1.698504
H      2.307148    1.240080   -1.623059
H      2.694223    1.475133    0.123610
H      1.755541   -0.798638    0.638364
H      1.367120   -1.033425   -1.109865
H      0.240957    1.199046    0.707400
H     -0.139525    0.969183   -1.042449
H     -1.088167   -1.306011   -0.535008
H     -0.669266   -1.090627    1.197219
H     -2.160945    0.942703    1.305155
H     -3.104458   -0.957642   -1.844100
H     -2.999513   -1.104648    2.013164
H     -3.353397   -1.638359    0.457422
