25

C     -1.935486    0.887028   -1.058062
C     -1.387427    0.106854    0.145604
C     -0.114713    0.776975    0.622359
O     -0.211072    1.772902    1.391935
C      1.236325    0.325792    0.191674
C      2.367214    0.693356    0.946713
C      3.646291    0.283926    0.558109
C      3.815062   -0.491288   -0.590239
C      2.705213   -0.855902   -1.354332
C      1.423069   -0.450362   -0.970629
N     -2.375529    0.074441    1.242943
C     -3.497016   -0.824353    0.948692
H     -2.751099    0.320971   -1.552912
H     -2.324158    1.876417   -0.734333
H     -1.138965    1.048520   -1.815502
H     -1.152094   -0.934448   -0.167820
H      2.262343    1.289995    1.844411
H      4.507545    0.568176    1.148906
H      4.806178   -0.806323   -0.890136
H      2.838524   -1.449983   -2.249299
H      0.589962   -0.732006   -1.599157
H     -1.904644   -0.313942    2.094863
H     -3.138510   -1.837501    0.662356
H     -4.133903   -0.925305    1.853174
H     -4.133110   -0.403941    0.143055
