41

C     -0.864495   -2.065174    1.939083
C     -1.754284   -1.947171    0.729667
C     -1.498663   -1.010083   -0.302553
C     -2.372734   -0.943010   -1.416795
C     -3.518355   -1.752090   -1.446830
C     -3.782655   -2.644754   -0.410397
C     -2.908060   -2.743252    0.669679
C     -2.134588    0.012062   -2.556430
N     -0.342804   -0.151757   -0.232743
C     -0.544848    1.269275    0.134164
C     -0.679343    1.432052    1.652410
C      0.511418    2.174139   -0.452004
O      0.531887    2.370377   -1.698026
O      1.473452    2.768924    0.371924
C      2.542425    3.553828   -0.140815
C      0.918581   -0.693661   -0.686641
O      0.933736   -1.475671   -1.676105
C      2.190158   -0.394998   -0.003958
C      3.451603   -0.648600   -0.507179
C      4.332862   -0.222100    0.462521
C      3.558167    0.258145    1.497915
O      2.287504    0.138750    1.190596
H     -1.242801   -1.404224    2.745496
H      0.184303   -1.794113    1.709127
H     -0.856882   -3.110719    2.314326
H     -4.210187   -1.692938   -2.278282
H     -4.669900   -3.263876   -0.444525
H     -3.133770   -3.442327    1.465823
H     -2.542475   -0.400195   -3.503932
H     -2.638774    0.977577   -2.344990
H     -1.051792    0.190702   -2.715844
H     -1.510723    1.615333   -0.293912
H     -1.583910    0.896361    2.008082
H      0.203292    1.028324    2.185361
H     -0.798622    2.505129    1.914708
H      3.170152    3.908546    0.702045
H      2.141083    4.433089   -0.687688
H      3.169517    2.940138   -0.821947
H      3.701756   -1.086653   -1.464511
H      5.413115   -0.258131    0.420888
H      3.925655    0.672746    2.426851
