34

C     -3.007543    0.899450   -0.950715
N     -1.582062    0.503227   -1.066632
C     -1.306861    0.191781   -2.491259
C     -0.746445    1.650414   -0.638931
C     -1.367349   -0.698325   -0.198475
C      0.106877   -1.171912   -0.051028
C      0.179511   -2.634406    0.435646
C     -0.390880   -2.807369    1.811673
O      0.319770   -2.578904    2.825740
O     -1.717607   -3.186258    1.972862
O      0.793550   -0.320662    0.869778
C      2.187092   -0.220731    0.944650
O      2.926182   -0.875812    0.160145
C      2.798119    0.717756    1.931602
C      2.685612    2.123099    1.429476
O      1.744598    2.859392    1.826957
O      3.589047    2.613198    0.491126
H     -3.680586    0.069030   -1.262696
H     -3.264149    1.173310    0.097590
H     -3.238977    1.780031   -1.591872
H     -1.615298    1.033932   -3.151013
H     -1.860278   -0.716633   -2.818064
H     -0.225689    0.028952   -2.680253
H      0.330087    1.470337   -0.848560
H     -1.025421    2.576900   -1.189542
H     -0.868341    1.848032    0.449457
H     -1.756032   -0.498950    0.827107
H     -1.976053   -1.545155   -0.592046
H      0.611812   -1.134344   -1.036576
H      1.238090   -2.972005    0.439684
H     -0.364284   -3.294633   -0.274196
H      3.867957    0.463746    2.092649
H      2.272699    0.618289    2.905745
H      4.342854    2.035219    0.139087
