50

C     -2.768557    0.255733   -1.602150
C     -2.532641    0.626037   -0.101778
C     -1.669795    1.901152    0.004214
C     -0.230950    1.646336   -0.505758
C      0.454697    0.407320    0.159900
C     -0.463318   -0.862110    0.136740
C     -1.842304   -0.475283    0.711215
C     -2.907283   -1.551367    0.880792
C     -4.224785   -0.761136    0.977165
C     -3.888633    0.704829    0.631257
O     -4.904025    1.279567   -0.150723
C      0.180513   -1.981164    0.971412
C      1.544292   -2.364215    0.404945
C      2.448064   -1.158300    0.290940
C      3.752353   -1.308770    0.588286
C      4.735593   -0.239543    0.371216
O      5.945178   -0.443442    0.659638
C      4.324460    1.057133   -0.264698
C      2.830482    1.331604   -0.021451
C      1.911602    0.117425   -0.377741
C      1.922333   -0.102768   -1.912671
O      5.104746    2.124386    0.215227
H     -1.832106    0.051250   -2.153591
H     -3.268339    1.096973   -2.127747
H     -3.417207   -0.638120   -1.708775
H     -2.130572    2.723719   -0.584796
H     -1.617922    2.243049    1.061793
H     -0.252191    1.539784   -1.607592
H      0.354673    2.562036   -0.284871
H      0.566919    0.680092    1.235404
H     -0.589770   -1.246794   -0.893886
H     -1.653543   -0.085125    1.742825
H     -2.732371   -2.148136    1.802510
H     -2.920610   -2.232222    0.001824
H     -4.966572   -1.180316    0.262124
H     -4.645816   -0.825721    2.004253
H     -3.781039    1.274907    1.585252
H     -4.714223    2.253204   -0.184447
H     -0.466870   -2.884385    0.958136
H      0.296625   -1.657620    2.029902
H      1.985502   -3.141756    1.067147
H      1.416919   -2.816483   -0.602282
H      4.112780   -2.247739    0.992483
H      4.504702    0.974680   -1.357000
H      2.691676    1.594609    1.051112
H      2.550760    2.224585   -0.619684
H      1.742224    0.845935   -2.459485
H      1.157668   -0.839257   -2.228597
H      2.905416   -0.495830   -2.248027
H      4.981262    2.171259    1.200039
