19

C      1.159489    0.928531   -1.075859
C      0.395014   -0.322655   -0.622582
C      1.295162   -1.203464    0.263849
C     -0.986816    0.031074    0.014829
C     -1.777663   -1.213009    0.314321
O     -2.420303   -1.787059   -0.604174
O     -1.769272   -1.765682    1.590109
N     -0.894596    0.856143    1.231034
O     -0.740715    2.155402    0.873435
H      0.508939    1.573725   -1.703894
H      1.519836    1.512650   -0.202956
H      2.041206    0.634254   -1.684508
H      0.182272   -0.910393   -1.544217
H      1.660455   -0.652924    1.154729
H      2.183019   -1.532217   -0.317561
H      0.758288   -2.116497    0.593602
H     -1.575179    0.591840   -0.748693
H     -0.070207    0.587089    1.811526
H     -1.468928    2.633191    1.345832
