25

C      2.682642   -0.103698    0.199936
C      1.492508   -0.350084   -0.741778
C      0.059447   -0.216657   -0.110496
C     -0.250100   -1.430204    0.770363
O      0.662477   -1.995901    1.428885
N     -1.595517   -1.885146    0.949000
C     -2.633684   -1.446981    0.078396
O     -3.820928   -1.820773    0.270565
N     -2.316520   -0.614059   -1.031844
C     -0.978966   -0.148144   -1.234472
O     -0.696472    0.406609   -2.331812
C     -0.090103    1.052971    0.778802
C      0.120447    2.382885    0.043980
H      2.673397   -0.770309    1.081862
H      2.710216    0.950162    0.543020
H      3.625643   -0.296155   -0.354057
H      1.599256   -1.364882   -1.185042
H      1.613762    0.368249   -1.580678
H     -1.809544   -2.588188    1.691961
H     -3.055708   -0.388729   -1.735279
H     -1.111484    1.073004    1.220919
H      0.615247    1.003600    1.636277
H     -0.670281    2.540328   -0.718382
H      1.114352    2.425122   -0.444492
H      0.059914    3.216981    0.774365
