37

C     -2.769795    1.653162   -0.491960
C     -1.778131    0.863802    0.381344
C     -0.525184    1.730610    0.698387
C      0.552186    1.764433   -0.413585
C      1.368336    0.434566   -0.705553
C      1.178562   -0.726175    0.324537
C     -0.293007   -1.293815    0.467432
C     -1.369442   -0.461334   -0.297132
C     -2.450287   -1.458462   -0.600271
C     -1.935962   -2.676135   -0.656546
C     -0.570416   -2.635751   -0.159911
O      0.179410   -3.646409   -0.099248
C     -0.636321   -1.469721    1.973994
O      2.072052   -1.767169    0.018082
C      2.793090    0.924990   -0.716706
C      3.854154    0.265242   -1.184514
C      2.802341    2.297058   -0.279600
O      3.829349    3.006017   -0.110680
O      1.522138    2.755059   -0.079201
H     -3.030806    2.616808   -0.005109
H     -2.339528    1.864510   -1.493584
H     -3.713936    1.085338   -0.621072
H     -2.297572    0.640188    1.338575
H     -0.852128    2.775194    0.895594
H     -0.054779    1.411516    1.647181
H      0.067429    2.086722   -1.360740
H      1.137957    0.062830   -1.728380
H      1.491796   -0.288465    1.303107
H     -1.004230   -0.206679   -1.314038
H     -3.449317   -1.222265   -0.940172
H     -2.470239   -3.561232   -0.975565
H      0.036591   -2.227383    2.431175
H     -0.511998   -0.534507    2.551039
H     -1.684782   -1.811948    2.115507
H      2.266044   -2.244749    0.867143
H      4.831812    0.729888   -1.197825
H      3.754608   -0.735732   -1.581706
