19

C      0.288278    0.340327    0.088703
C      0.880660   -0.983755    0.589441
C      2.278933   -0.777219    1.080009
O      3.252753   -0.925730    0.294140
O      2.500085   -0.377740    2.394271
C     -1.101759    0.162884   -0.553840
C     -1.500807    1.447746   -1.234178
O     -1.929650    2.416956   -0.552858
O     -1.355372    1.595663   -2.610841
N     -2.101251   -0.197379    0.456227
H      0.219713    1.059840    0.935142
H      0.981152    0.769524   -0.670375
H      0.271519   -1.385780    1.425977
H      0.885545   -1.733490   -0.231749
H      3.439704   -0.217912    2.737403
H     -1.051390   -0.642683   -1.321414
H     -0.988750    0.846474   -3.185531
H     -3.042559   -0.216086   -0.000884
H     -1.926804   -1.181639    0.761384
