17

C      2.474446    0.179612   -0.144507
C      1.857965   -0.942920   -0.701620
C      0.470751   -1.097223   -0.615497
C     -0.315315   -0.125294    0.032514
C      0.317006    1.002691    0.586783
C      1.704703    1.151315    0.498759
C     -1.789360   -0.277048    0.125208
N     -2.329915   -1.442937    0.301155
N     -2.638328    0.869806    0.031132
H      3.548292    0.296953   -0.212116
H      2.454893   -1.692561   -1.204908
H      0.013408   -1.964973   -1.073435
H     -0.257517    1.759991    1.104940
H      2.183818    2.019498    0.932672
H     -1.770365   -2.319104    0.399269
H     -2.252033    1.811995   -0.198561
H     -3.672450    0.770198    0.138212
