34

C     -3.324448   -3.215843   -0.183149
C     -2.199748   -2.511464   -0.936202
C     -2.009240   -1.098417   -0.461683
C     -0.846990   -0.336236   -0.604030
C     -1.160733    0.891017   -0.048622
C     -0.436082    2.080571    0.058956
C     -1.064319    3.179785    0.671774
C     -2.390938    3.074161    1.144073
C     -3.104274    1.870615    0.999943
C     -2.457027    0.798399    0.390345
O     -2.950928   -0.388631    0.135914
C      0.414970   -0.742873   -1.257431
O      0.357179   -1.445342   -2.302718
C      1.739173   -0.358437   -0.714836
C      2.840396   -0.223059   -1.575245
C      4.098301    0.134015   -1.076202
C      4.269939    0.351888    0.305120
C      3.175259    0.202087    1.168580
C      1.922459   -0.156966    0.663336
Br     3.373599    0.481763    3.051409
O      5.508507    0.712788    0.838830
Br     5.546646    0.313331   -2.318437
H     -3.109520   -3.227650    0.906901
H     -4.292394   -2.700981   -0.362842
H     -3.410641   -4.263777   -0.540003
H     -1.259680   -3.083974   -0.783987
H     -2.434923   -2.499488   -2.021582
H      0.572544    2.167427   -0.321316
H     -0.529138    4.114556    0.776394
H     -2.865118    3.927295    1.611476
H     -4.126232    1.782733    1.344774
H      2.720965   -0.382017   -2.640060
H      1.095565   -0.284266    1.350658
H      6.336870    0.836992    0.271575
