23

C     -2.701348   -0.066314    0.032812
C     -1.630258    0.905870   -0.383800
O     -1.687222    2.060092    0.013265
C     -0.480104    0.481235   -1.271612
C      0.488733   -0.477424   -0.533168
C      1.161877    0.180019    0.705408
C      2.056329   -0.769875    1.473859
O      2.037092   -2.008092    1.240690
O      2.875925   -0.288384    2.490966
O      1.866391    1.342646    0.342677
O      1.458803   -0.984070   -1.419562
O     -0.981539   -0.158426   -2.416953
O     -2.713777   -0.203833    1.427240
H     -2.556071   -1.058340   -0.451179
H     -3.686910    0.323718   -0.297155
H      0.092448    1.386192   -1.585172
H     -0.106164   -1.345671   -0.173576
H      0.361063    0.483987    1.411843
H      2.893695    0.695612    2.730695
H      2.692201    1.063708   -0.132474
H      1.887021   -0.215577   -1.878695
H     -1.383812    0.547756   -2.987904
H     -1.944372   -0.785977    1.661792
