47

C      5.771531   -1.943591    1.548059
C      5.212513   -0.706043    0.897560
C      3.966272   -0.316662    1.238253
C      3.238655    0.862179    0.709686
O      3.793337    1.676025   -0.076883
N      1.878639    1.079413    1.111984
C      1.043134    2.136062    0.540362
C      0.652515    1.813731   -0.910994
C     -0.040670    0.462887   -1.002248
C      0.640598   -0.595742   -1.477682
C      0.016345   -1.925090   -1.543706
O      0.663786   -2.905722   -1.997742
C     -1.366002   -2.092711   -1.070173
N     -1.963646   -3.311066   -1.118028
C     -3.235145   -3.497707   -0.684717
C     -3.971182   -2.428686   -0.169942
C     -3.394703   -1.140136   -0.097620
C     -2.064604   -0.982156   -0.562461
C     -1.442662    0.281644   -0.514582
N     -2.128702    1.340919   -0.017030
C     -3.401373    1.241871    0.441470
C     -4.032760    2.387474    0.938824
C     -5.340156    2.318520    1.416841
C     -6.025068    1.104808    1.401053
C     -5.408639   -0.048797    0.907764
C     -4.081509   -0.004097    0.416942
O     -0.185569    2.828419   -1.399403
C      6.055651    0.035688   -0.108312
H      5.807024   -1.805309    2.649612
H      6.799335   -2.169872    1.195652
H      5.125443   -2.816014    1.312884
H      3.427281   -0.921480    1.959106
H      1.461106    0.466526    1.848468
H      1.588219    3.104121    0.579069
H      0.126485    2.249719    1.158558
H      1.585753    1.812125   -1.521282
H      1.665690   -0.487577   -1.812435
H     -3.678847   -4.483030   -0.738612
H     -4.975424   -2.639536    0.159327
H     -3.508547    3.335321    0.955238
H     -5.823689    3.207701    1.800390
H     -7.040414    1.056414    1.773452
H     -5.991779   -0.954911    0.923431
H     -0.247422    2.700256   -2.382360
H      5.536417    0.068081   -1.089300
H      7.035737   -0.460527   -0.265746
H      6.257046    1.066557    0.251281
