50

C      2.950393    0.542820    2.968523
C      2.583216    1.285810    1.709230
C      2.348663    0.665198    0.534868
C      2.335446   -0.798341    0.301242
O      2.463367   -1.616790    1.251204
N      2.128883   -1.286537   -1.031068
C      1.686277   -2.653430   -1.308414
C      0.208179   -2.848510   -0.912693
C     -0.660761   -1.822336   -1.625885
C     -0.945287   -1.979658   -2.933131
C     -1.687643   -0.948549   -3.673020
O     -1.969108   -1.121985   -4.888607
C     -2.079042    0.288842   -2.981285
N     -2.728773    1.273674   -3.653519
C     -3.094714    2.429189   -3.044985
C     -2.807283    2.639515   -1.694938
C     -2.132884    1.645508   -0.950259
C     -1.769236    0.448887   -1.618750
C     -1.096817   -0.575374   -0.922611
N     -0.828255   -0.412899    0.397108
C     -1.155908    0.710469    1.082031
C     -0.827705    0.794984    2.439331
C     -1.118029    1.949867    3.162608
C     -1.746053    3.024730    2.536020
C     -2.092885    2.950882    1.183735
C     -1.806461    1.788596    0.428050
O     -0.214035   -4.153682   -1.281424
C     -0.118535   -5.043756   -0.190258
C      2.475781    2.786726    1.750632
H      3.151820    1.238724    3.809149
H      2.117742   -0.121689    3.278018
H      3.870678   -0.055410    2.800987
H      2.113991    1.282134   -0.325652
H      2.232185   -0.628144   -1.836244
H      1.808403   -2.862611   -2.393754
H      2.332406   -3.371763   -0.760285
H      0.119909   -2.681253    0.186801
H     -0.607220   -2.858830   -3.468865
H     -3.612197    3.191340   -3.612386
H     -3.126245    3.575455   -1.266306
H     -0.338774   -0.034932    2.933744
H     -0.853344    2.012902    4.210133
H     -1.967099    3.921115    3.101205
H     -2.574508    3.815899    0.758053
H     -0.363866   -6.065906   -0.544167
H      0.911792   -5.068583    0.227887
H     -0.851880   -4.774181    0.601329
H      3.209172    3.236086    1.047989
H      2.675035    3.189093    2.765551
H      1.451210    3.096703    1.453076
