36

C      6.045367    0.247914    0.192363
C      4.572900   -0.056588    0.453022
C      3.883698   -0.579310   -0.815892
C      2.434945   -1.024782   -0.561656
C      1.489657    0.156967   -0.297235
C      0.034101   -0.318929   -0.186006
C     -0.926204    0.843265    0.139523
C     -2.326872    0.342932    0.542734
C     -3.062332   -0.402802   -0.581205
O     -4.383264   -0.747321   -0.167674
C     -5.439820    0.169206   -0.121610
O     -5.272677    1.367340   -0.477844
C     -6.769168   -0.268145    0.392142
O     -1.036979    1.708571   -0.963069
H      6.581143   -0.673501   -0.120681
H      6.515719    0.632765    1.121721
H      6.145039    1.018358   -0.601763
H      4.079277    0.875858    0.799080
H      4.501842   -0.816399    1.261484
H      4.450080   -1.458171   -1.195269
H      3.904693    0.201542   -1.607645
H      2.403995   -1.734049    0.294495
H      2.082018   -1.571202   -1.463831
H      1.576811    0.888483   -1.129691
H      1.777484    0.659350    0.650599
H     -0.264402   -0.793875   -1.145732
H     -0.030999   -1.084332    0.618746
H     -0.525922    1.397518    1.022517
H     -2.243027   -0.324840    1.427946
H     -2.931863    1.222292    0.851902
H     -3.103170    0.209632   -1.508185
H     -2.523468   -1.344291   -0.813858
H     -7.580813    0.211166   -0.194854
H     -6.866360   -1.370555    0.304344
H     -6.866895    0.022197    1.458776
H     -0.324534    2.393734   -0.871592
