61

C      4.483885   -2.619130    1.820063
C      4.385996   -1.326624    0.999206
C      5.578822   -1.212395    0.042651
C      3.061758   -1.268571    0.209874
O      1.938519   -1.348809    1.066566
C      1.542692   -0.076470    1.556232
C      0.507860    0.645081    0.631267
C     -0.481764   -0.438008    0.092313
N     -1.731404    0.079421   -0.504557
C     -2.639885    0.956626    0.270844
C     -3.331413    0.235078    1.408595
C     -4.712868   -0.029162    1.352528
C     -5.356069   -0.673122    2.413923
C     -4.635283   -1.036017    3.553326
C     -3.273914   -0.738591    3.640610
C     -2.627356   -0.094297    2.581624
C     -2.174211   -0.484816   -1.769074
C     -1.274772   -0.638206   -2.846958
C     -1.701256   -1.180077   -4.062875
C     -3.025787   -1.587049   -4.222574
C     -3.924547   -1.459355   -3.163568
C     -3.503146   -0.917124   -1.945915
N      1.168077    1.409069   -0.472354
C      2.212935    2.335177    0.004873
C      2.334683    3.457397   -1.016891
C      1.089743    3.352258   -1.871306
C      0.241217    2.303209   -1.181950
H      4.434099   -3.510070    1.157422
H      3.654279   -2.672088    2.556820
H      5.441657   -2.643887    2.382617
H      4.436060   -0.466320    1.700330
H      6.531628   -1.222521    0.614154
H      5.526444   -0.256532   -0.521486
H      5.584939   -2.056453   -0.680548
H      3.030708   -0.379448   -0.451748
H      3.020060   -2.141771   -0.476319
H      1.031123   -0.263072    2.524943
H      2.403547    0.560889    1.842185
H     -0.034276    1.353985    1.291704
H      0.067850   -1.071315   -0.634661
H     -0.759913   -1.135267    0.909860
H     -3.391981    1.412178   -0.410176
H     -2.091636    1.819664    0.689935
H     -5.301162    0.278747    0.497988
H     -6.416890   -0.880645    2.357215
H     -5.135284   -1.531284    4.375674
H     -2.720798   -0.997391    4.534304
H     -1.582924    0.160222    2.690105
H     -0.240038   -0.337778   -2.759120
H     -1.001837   -1.285917   -4.882189
H     -3.353845   -2.008226   -5.164154
H     -4.948962   -1.788031   -3.282976
H     -4.214007   -0.864367   -1.141562
H      3.191008    1.818961    0.096024
H      1.938060    2.775987    0.991483
H      2.385558    4.445731   -0.509241
H      3.244268    3.321368   -1.642846
H      0.554612    4.324841   -1.937040
H      1.358680    3.008353   -2.894774
H     -0.354027    1.761755   -1.936519
H     -0.439515    2.824207   -0.473877
