24

C     -1.800048   -2.433673   -0.198274
O     -1.011072   -1.527973   -0.960818
C     -0.469664   -0.363846   -0.406091
C      0.931580   -0.203339   -0.284310
C      1.826950   -1.193346   -0.707783
C      3.197950   -0.991831   -0.556457
C      3.652271    0.198652    0.019222
O      4.887347    0.394739    0.162746
O      2.788637    1.128136    0.417900
C      1.471880    0.984062    0.295099
C      0.617335    2.008933    0.737950
C     -0.753587    1.830097    0.582122
C     -1.280422    0.690147    0.033204
C     -2.646613    0.870557   -0.005229
C     -2.855654    2.126078    0.552624
O     -1.705056    2.674843    0.894231
H     -2.093246   -3.289082   -0.840542
H     -1.208227   -2.816586    0.659828
H     -2.717841   -1.941445    0.179066
H      1.473890   -2.116206   -1.151121
H      3.898144   -1.751583   -0.881434
H      1.011854    2.918101    1.173501
H     -3.398425    0.203260   -0.402925
H     -3.817984    2.601305    0.687491
