27

C      1.118474   -1.036562    0.270921
C      2.298468   -0.320237   -0.404614
C      2.770045    0.910475    0.380553
C      3.999711    1.488355   -0.245502
O      3.898116    2.351511   -1.158002
O      5.255478    1.038798    0.150324
C     -0.189226   -0.235672    0.181574
C     -1.366628   -1.036743    0.746815
O     -2.541556   -0.247205    0.737908
C     -3.319507   -0.527968   -0.406198
C     -4.468341    0.422577   -0.453449
O     -4.329279    1.553775   -0.990795
O     -5.678728    0.077831    0.139630
H      0.975091   -2.014576   -0.238922
H      1.363830   -1.244883    1.335541
H      3.141216   -1.042958   -0.477849
H      2.017754   -0.024904   -1.439748
H      1.975825    1.686494    0.395869
H      2.999564    0.625392    1.430031
H      6.097277    1.408152   -0.275265
H     -0.095096    0.707759    0.759942
H     -0.395039    0.020652   -0.879906
H     -1.476422   -2.005605    0.202359
H     -1.143255   -1.295309    1.804028
H     -3.720858   -1.564992   -0.355541
H     -2.724188   -0.413472   -1.340636
H     -6.462727    0.719316    0.130932
