33

C     -5.615372    0.622131    1.452320
C     -5.368699    0.607451    0.079793
C     -4.063163    0.464190   -0.401124
C     -2.976245    0.332431    0.493512
C     -3.248889    0.349932    1.878052
C     -4.556543    0.493506    2.350230
C     -1.560819    0.176533    0.035429
C     -1.190817    0.147902   -1.316141
C      0.151706   -0.000786   -1.668333
O      0.425374   -0.019687   -2.894716
C      1.148952   -0.123741   -0.660155
C      0.679144   -0.083670    0.682113
O     -0.612230    0.059981    0.956918
C      1.559943   -0.193993    1.754208
C      2.919843   -0.345976    1.540021
C      3.432670   -0.391349    0.241185
C      4.817930   -0.546630    0.068731
C      5.369146   -0.596628   -1.206514
C      4.546752   -0.492553   -2.321567
C      3.166239   -0.337558   -2.173945
C      2.563929   -0.281859   -0.888005
H     -6.627307    0.733195    1.819989
H     -6.192207    0.707462   -0.615707
H     -3.931466    0.459579   -1.470867
H     -2.451115    0.252553    2.603534
H     -4.748245    0.504926    3.415504
H     -1.916592    0.238003   -2.109539
H      1.182779   -0.161198    2.769136
H      3.576665   -0.428814    2.398418
H      5.477227   -0.629733    0.925117
H      6.437737   -0.716496   -1.330895
H      4.981906   -0.532192   -3.312290
H      2.621768   -0.266911   -3.094411
