23

C     -2.423097   -0.636782   -1.239508
C     -3.049206    0.325261   -0.448094
C     -2.385755    0.861827    0.656571
C     -1.087701    0.439776    0.984700
C     -0.456888   -0.554757    0.194885
C     -1.135614   -1.074164   -0.922685
C      0.889100   -1.077625    0.529136
O      1.144082   -1.423664    1.714101
C      1.952233   -1.241699   -0.522127
C      2.186011    0.050593   -1.251552
O      1.732207    0.192274   -2.418674
C      2.904890    1.165982   -0.616433
O      3.352926    1.054840    0.555379
O      3.090130    2.356034   -1.308663
N     -0.414096    1.070919    2.082848
H     -2.937900   -1.047863   -2.098247
H     -4.047472    0.662364   -0.695514
H     -2.878939    1.621360    1.250504
H     -0.680668   -1.837842   -1.540358
H      1.653185   -2.037720   -1.236629
H      2.904677   -1.569769   -0.051845
H      0.607149    0.945079    2.254110
H     -0.919257    1.755577    2.689339
