18

C     -1.466439   -0.810411    0.939448
C     -0.918049    0.322968    0.103151
C      0.246346    0.185774   -0.593583
C      1.128340   -1.040252   -0.435462
C      2.002533   -0.920875    0.775009
O      2.854089    0.003418    0.855161
O      1.890590   -1.841732    1.809030
C      0.711475    1.217921   -1.555535
O      1.943700    1.421207   -1.718964
O     -0.197095    1.922703   -2.337247
C     -1.686113    1.592174    0.108973
O     -2.945139    1.570483    0.135993
O     -1.030066    2.817570    0.144682
H     -2.378300   -0.506413    1.495468
H     -1.736596   -1.666603    0.286390
H     -0.719838   -1.133484    1.693053
H      1.778609   -1.166354   -1.328070
H      0.521953   -1.968092   -0.377497
