21

C     -1.445158   -0.518311   -1.575985
C     -0.605280   -0.593729   -0.279456
C      0.419356    0.597089   -0.204794
C      1.331362    0.570826    1.049092
C      2.299728   -0.572672    1.040492
O      3.255745   -0.587573    0.221061
O      2.141095   -1.626739    1.931437
C     -0.266840    1.941316   -0.289933
O     -0.322542    2.552405   -1.389917
O     -0.859387    2.506562    0.833697
C     -1.538061   -0.588613    0.915025
O     -1.271361   -1.283650    1.931809
O     -2.676294    0.210635    0.924776
O      0.084107   -1.823303   -0.284968
H     -0.782249   -0.502476   -2.467538
H     -2.081387    0.391560   -1.602266
H     -2.108371   -1.406839   -1.653630
H      1.088180    0.524079   -1.093043
H      1.927021    1.509597    1.090864
H      0.722733    0.536002    1.977443
H      0.687604   -1.836168   -1.074165
