47

C     -2.564049    1.436427   -2.596350
C     -1.402889    0.905538   -1.792324
C     -0.178286    1.579034   -1.854091
C      0.942136    1.117224   -1.148921
C      0.838480   -0.032975   -0.341605
C     -0.409309   -0.697950   -0.235168
C     -1.526866   -0.241407   -0.976676
C     -2.813051   -0.966764   -0.910427
O     -2.849544   -2.202022   -1.164097
O     -3.984240   -0.269584   -0.593267
C     -5.252480   -0.895850   -0.399789
C     -5.384860   -1.479854    1.017062
C     -5.139583   -0.418079    2.100154
O     -6.081408    0.613283    1.988743
O     -4.477782   -2.539203    1.175202
O     -0.529468   -1.788246    0.634506
C      2.045104   -0.514380    0.394624
O      1.983300   -1.581208    1.063395
C      3.329273    0.242523    0.333147
C      3.408481    1.394563   -0.480531
C      2.227760    1.845739   -1.250014
O      2.316872    2.861058   -1.994878
C      4.612302    2.114890   -0.558583
C      5.732455    1.707379    0.160886
C      5.663907    0.572554    0.970629
C      4.471430   -0.169837    1.069043
O      4.396842   -1.310569    1.887321
C      5.468895   -1.823269    2.672383
O      6.913489    2.440617    0.064588
H     -3.081482    0.607781   -3.124173
H     -3.279862    1.950992   -1.921971
H     -2.228961    2.161343   -3.368589
H     -0.096489    2.467302   -2.469225
H     -5.413692   -1.690391   -1.160914
H     -6.045354   -0.133585   -0.554002
H     -6.425845   -1.865439    1.125513
H     -5.233630   -0.893566    3.102057
H     -4.109621   -0.006151    2.004931
H     -5.860282    1.266253    2.702622
H     -4.789754   -3.072866    1.952291
H     -1.407295   -2.240335    0.853619
H      4.687463    2.999570   -1.178972
H      6.546750    0.277463    1.520695
H      5.121452   -2.727786    3.212218
H      5.791733   -1.067114    3.418803
H      6.320474   -2.106117    2.018207
H      7.747484    2.173014    0.574277
