33

C      4.086170   -1.282435    2.977949
O      3.575219   -0.838571    1.726996
C      3.029836    0.435663    1.546558
O      2.958143    1.247857    2.509185
C      2.480155    0.817978    0.209087
C      1.014278    0.390817    0.091852
C      0.445200    0.751261   -1.292030
C     -1.076330    0.500139   -1.438513
C     -1.419696   -0.978187   -1.272172
C     -1.664714   -1.497427   -0.059087
C     -1.403058   -1.870533   -2.457295
O     -1.069942   -1.421049   -3.586863
O     -1.750297   -3.214357   -2.337222
C     -1.926651    1.405676   -0.571921
O     -1.447338    2.472193   -0.095915
O     -3.277642    1.097613   -0.378735
C     -4.144907    1.908451    0.404369
H      3.280478   -1.272853    3.742363
H      4.920381   -0.625134    3.302931
H      4.466631   -2.318726    2.869219
H      3.081682    0.323036   -0.584038
H      2.566534    1.918585    0.074699
H      0.951417   -0.708448    0.242294
H      0.425146    0.891637    0.889894
H      0.654006    1.821830   -1.511714
H      0.981212    0.156064   -2.064185
H     -1.337331    0.794174   -2.478222
H     -1.642293   -0.880940    0.830347
H     -1.881674   -2.549316    0.074818
H     -1.739546   -3.828305   -3.142827
H     -3.767429    1.970906    1.446963
H     -4.210440    2.927294   -0.032797
H     -5.157197    1.455107    0.414884
