28

C      0.716188   -1.901459    0.970385
C      0.962131   -0.468180    0.492353
C     -0.066426    0.017975   -0.575946
N     -1.486221    0.238651   -0.136127
C     -2.142123    1.114156   -1.141633
C     -1.569559    0.913614    1.180832
C     -2.247944   -1.034443   -0.094496
O      2.272381   -0.425110   -0.079505
C      3.020109    0.749644   -0.223793
O      2.577883    1.853154    0.196586
N      4.300069    0.694013   -0.847100
H     -0.030820   -1.918757    1.788781
H      1.652621   -2.323125    1.394394
H      0.390887   -2.554438    0.132775
H      0.957539    0.195802    1.382959
H      0.344357    0.974782   -0.970962
H     -0.034171   -0.681350   -1.442431
H     -1.654379    2.114307   -1.185057
H     -3.216120    1.283140   -0.899942
H     -2.090149    0.662549   -2.158314
H     -2.616230    1.214598    1.412310
H     -1.245534    0.241842    2.004418
H     -0.936778    1.829026    1.197900
H     -1.932534   -1.685033    0.740340
H     -2.137792   -1.602722   -1.044775
H     -3.334196   -0.846720    0.062711
H      4.872348    1.559954   -0.960888
H      4.674464   -0.215867   -1.195777
