38

C     -3.158878    0.749591   -2.028866
C     -2.941326    0.121371   -0.626116
C     -3.700255   -1.216519   -0.503555
C     -3.599599    1.109874    0.378961
C     -1.426004   -0.092321   -0.333256
C     -0.893758    0.243271    0.931844
C      0.474539    0.191613    1.214367
C      1.409299   -0.128063    0.189049
C      0.865974   -0.607981   -1.023361
C     -0.508639   -0.635526   -1.277507
O     -0.890626   -1.232269   -2.480043
C      2.952218    0.010017    0.354609
C      3.688470    0.037639   -1.015809
C      3.510579   -1.193210    1.142891
C      3.324860    1.344588    1.055279
O      0.831440    0.452676    2.538154
H     -2.478856    1.617565   -2.171166
H     -4.203237    1.111276   -2.149485
H     -3.009364    0.043181   -2.862094
H     -3.576973   -1.634822    0.518842
H     -3.344317   -1.979453   -1.217735
H     -4.786059   -1.066742   -0.689140
H     -4.641102    1.357671    0.078558
H     -3.024990    2.060298    0.429992
H     -3.680257    0.671164    1.396208
H     -1.533551    0.538087    1.748322
H      1.498992   -0.995969   -1.805372
H     -1.784941   -1.665469   -2.640408
H      3.247591    0.809223   -1.683884
H      3.657255   -0.950917   -1.521224
H      4.768002    0.272370   -0.890072
H      3.283357   -2.141064    0.608424
H      4.613995   -1.110465    1.250131
H      3.083447   -1.275616    2.157966
H      3.145005    1.339649    2.143116
H      2.760006    2.188371    0.603216
H      4.409244    1.566029    0.951593
H      1.658459    0.090883    2.983398
