43

C      0.434886   -2.782501    0.506282
C      0.611017   -1.765052   -0.642843
C      1.638534   -0.668902   -0.271250
S      3.289059   -1.287537    0.066487
O      3.324153   -1.963930    1.408624
O      3.717000   -2.274248   -0.983959
C      4.403927    0.074627    0.075731
C      4.639842    0.785165    1.261713
C      5.512698    1.877859    1.264148
C      6.148828    2.269060    0.081999
C      5.909607    1.569022   -1.104548
C      5.037192    0.475988   -1.109577
F      6.993873    3.329262    0.085367
C     -0.716167   -1.087446   -0.942408
O     -1.064310   -0.911938   -2.142675
N     -1.528796   -0.562015    0.122313
C     -2.898510   -0.155706   -0.041722
C     -3.404296    0.890112    0.743881
C     -4.746715    1.303621    0.628028
C     -5.589493    0.631696   -0.289380
C     -5.087325   -0.427329   -1.055274
C     -3.755789   -0.823202   -0.929518
C     -6.974861    1.003464   -0.456054
N     -8.085195    1.301044   -0.589982
C     -5.272896    2.445540    1.475258
F     -6.314461    1.994476    2.265840
F     -4.294194    2.968575    2.303110
F     -5.732935    3.458821    0.653676
O      1.067330   -2.436157   -1.795476
H      0.299546   -2.270906    1.482680
H     -0.450524   -3.428090    0.319937
H      1.321414   -3.446711    0.576786
H      1.716187    0.055481   -1.111202
H      1.296560   -0.104122    0.622422
H      4.146981    0.496813    2.181400
H      5.693260    2.422119    2.182188
H      6.397619    1.874053   -2.021292
H      4.853692   -0.053099   -2.036007
H     -1.077337   -0.386342    1.047746
H     -2.736233    1.383552    1.438228
H     -5.731404   -0.955804   -1.748418
H     -3.405345   -1.666750   -1.509263
H      0.413581   -3.152565   -2.012995
