50

C      6.320514   -0.893312   -1.237879
O      6.345419   -0.125073   -0.039222
C      5.228494    0.107624    0.778559
C      5.395125    0.888536    1.931193
C      4.303922    1.143235    2.772041
C      3.044606    0.622980    2.468781
C      2.860238   -0.158846    1.318456
C      3.955431   -0.415684    0.477465
C      1.498203   -0.715238    0.980627
C      0.859389    0.004595   -0.237630
C      0.512471    1.458285    0.080817
O     -0.817191    1.531024    0.546784
C     -1.451873    0.308976    0.232839
C     -0.508215   -0.526615   -0.637501
C     -0.711374   -2.050216   -0.492804
O     -1.943944   -2.437940   -1.037073
C     -2.773222    0.571388   -0.455592
C     -3.920565   -0.148747   -0.082314
C     -5.148649    0.067191   -0.738449
C     -5.218094    1.009462   -1.774190
C     -4.074296    1.723492   -2.153039
C     -2.859472    1.503917   -1.502053
O     -6.430670    1.228987   -2.425696
O     -6.314784   -0.633628   -0.392738
C     -6.387992   -1.622208    0.629486
O      6.651941    1.409394    2.234669
H      7.338026   -0.909510   -1.679151
H      5.622593   -0.435520   -1.970431
H      6.012607   -1.937000   -1.016231
H      4.431290    1.746606    3.661836
H      2.212405    0.834521    3.128746
H      3.806651   -1.022173   -0.405984
H      1.633962   -1.793489    0.752327
H      0.820818   -0.651081    1.860731
H      1.555216   -0.049233   -1.104990
H      0.593885    2.067868   -0.845894
H      1.193260    1.909152    0.830964
H     -1.631958   -0.218045    1.196976
H     -0.657437   -0.263788   -1.711229
H     -0.697064   -2.346817    0.577251
H      0.114157   -2.591214   -1.009050
H     -1.844102   -2.402615   -2.024194
H     -3.848416   -0.877547    0.713779
H     -4.125498    2.447655   -2.956141
H     -1.984200    2.058636   -1.816459
H     -6.514112    1.902124   -3.178589
H     -6.122798   -1.176572    1.611470
H     -5.704809   -2.465674    0.394577
H     -7.425550   -2.010481    0.684480
H      6.805661    1.977431    3.059669
