52

C      5.125648   -1.144743   -0.749063
C      4.200612   -0.304699   -1.646334
C      3.526708    0.819282   -0.847861
N      2.679935    0.302023    0.261372
C      3.163207   -0.982045    0.839104
C      4.684160   -1.138360    0.723680
C      1.257120    0.217560   -0.140256
C      0.340930    0.014733    1.085825
C     -1.197425    0.194773    0.837381
C     -1.691814   -0.769725   -0.304351
C     -1.593858   -2.286842    0.039581
C     -3.009807   -2.802040   -0.298754
C     -3.380736   -1.933444   -1.485115
C     -3.189858   -0.638127   -0.716324
C     -4.067936   -0.933669    0.472588
C     -3.950877   -2.235996    0.729961
C     -1.496346    1.675138    0.523959
C     -1.704132    2.593930    1.578239
C     -1.941012    3.946561    1.318181
C     -1.956335    4.416484    0.006208
C     -1.723704    3.536546   -1.049184
C     -1.485922    2.182628   -0.797406
O     -1.897490   -0.167722    2.013717
H      5.140530   -2.189901   -1.128230
H      6.163833   -0.751825   -0.812618
H      3.413448   -0.955632   -2.085974
H      4.787521    0.129964   -2.484186
H      2.952815    1.465431   -1.548407
H      4.314716    1.472667   -0.414487
H      2.684322   -1.856643    0.341763
H      2.895005   -1.015072    1.916700
H      5.175242   -0.295722    1.258438
H      5.003770   -2.083449    1.213750
H      1.120292   -0.606649   -0.873521
H      0.960758    1.166249   -0.630250
H      0.513829   -1.003645    1.493572
H      0.662018    0.732153    1.873849
H     -1.089383   -0.598403   -1.220709
H     -0.837268   -2.785912   -0.605291
H     -1.344663   -2.487194    1.104433
H     -3.093263   -3.897863   -0.457513
H     -4.431151   -2.088390   -1.829353
H     -2.686584   -2.047613   -2.350289
H     -3.463725    0.277928   -1.279586
H     -4.733046   -0.244576    0.981850
H     -4.509787   -2.785560    1.479649
H     -1.680547    2.277459    2.611238
H     -2.106505    4.633296    2.138369
H     -2.137522    5.464984   -0.192037
H     -1.719493    3.905272   -2.066887
H     -1.285914    1.547117   -1.646477
H     -1.360316    0.059279    2.817055
