14

C     -1.916668    0.121129   -0.088442
C     -1.299204   -1.131986   -0.058496
C      0.094759   -1.225709    0.005840
C      0.882317   -0.063365    0.040724
C      0.253124    1.194516    0.010224
C     -1.141257    1.283057   -0.054116
C      2.350505   -0.179843    0.108499
O      3.083576    0.844157    0.141036
H     -2.995562    0.191773   -0.138223
H     -1.900797   -2.031383   -0.085128
H      0.558153   -2.204592    0.028380
H      0.836502    2.106442    0.035995
H     -1.620769    2.253155   -0.077380
H      2.815321   -1.157351    0.131088
