42

C      1.229844    2.731781   -2.761149
O      1.572133    2.126253   -1.519292
C      0.795634    1.153447   -0.873326
C      1.219428    0.618714    0.342426
C      2.334782    0.856438    1.117538
C      3.425676    1.711829    0.965817
C      4.414829    1.703632    1.971716
C      4.287796    0.847391    3.092675
C      3.170740   -0.005550    3.213835
C      2.211143    0.024064    2.206501
O      1.107498   -0.689021    2.135566
C      0.495089   -0.344557    1.018755
C     -0.718475   -0.841247    0.515412
C     -1.185028   -0.308404   -0.714083
C     -0.424726    0.674101   -1.399168
C     -2.465557   -0.769550   -1.302386
C     -2.521491   -1.178390   -2.646206
C     -3.729568   -1.605462   -3.205544
C     -4.896740   -1.623472   -2.430710
C     -4.849209   -1.210638   -1.095708
C     -3.642574   -0.783324   -0.533455
O     -6.105945   -2.047207   -2.977265
O     -1.463501   -1.842551    1.162434
C     -1.111648   -2.458673    2.396035
O      5.274650    0.852788    4.076434
O      5.525137    2.539345    1.868673
H      2.019622    3.459243   -3.039237
H      0.264444    3.272730   -2.668725
H      1.161231    1.959565   -3.556268
H      3.516212    2.362923    0.107344
H      3.058054   -0.666354    4.063657
H     -0.800715    1.069836   -2.333342
H     -1.627686   -1.177959   -3.258005
H     -3.757134   -1.922775   -4.240200
H     -5.749401   -1.216755   -0.494319
H     -3.630471   -0.449937    0.496881
H     -6.173272   -2.351837   -3.941400
H     -1.888740   -3.204443    2.660892
H     -0.138502   -2.984124    2.297678
H     -1.063800   -1.698201    3.203642
H      5.213778    0.252522    4.890577
H      5.646463    3.163827    1.079898
