30

C     -2.506639   -1.644243    0.209710
C     -2.237667   -0.411034   -0.665659
C     -3.532360    0.021858   -1.366091
C     -1.664487    0.773105    0.150900
C     -0.338163    0.489508    0.882309
C      0.819886    0.160059   -0.076611
C      2.168486   -0.028997    0.658734
C      2.729483    1.301361    1.189117
C      3.196377   -0.722753   -0.257805
O      3.422217    0.021230   -1.426739
H     -3.144728   -1.376985    1.079214
H     -1.553361   -2.078914    0.574870
H     -3.020535   -2.432262   -0.381304
H     -1.518111   -0.694009   -1.462999
H     -3.924058   -0.804515   -1.997109
H     -3.338938    0.893760   -2.026979
H     -4.307624    0.301765   -0.620498
H     -1.509316    1.641104   -0.527488
H     -2.415216    1.086179    0.909944
H     -0.087961    1.403450    1.459467
H     -0.470010   -0.330590    1.618909
H      0.577477   -0.786672   -0.603816
H      0.914056    0.961910   -0.841704
H      2.005918   -0.702050    1.530098
H      2.095211    1.696645    2.008403
H      3.747822    1.150637    1.606777
H      2.785028    2.059685    0.379291
H      2.812634   -1.724469   -0.547144
H      4.150625   -0.895223    0.292416
H      4.143952    0.670459   -1.220105
