12

C      0.864425    1.100011    0.008081
C      1.384860   -0.198524   -0.008543
C      0.520434   -1.298535   -0.016624
C     -0.864425   -1.100011   -0.008081
C     -1.384860    0.198524    0.008543
C     -0.520434    1.298535    0.016624
H      1.533169    1.951011    0.014334
H      2.456226   -0.352107   -0.015152
H      0.923057   -2.303118   -0.029486
H     -1.533169   -1.951011   -0.014333
H     -2.456226    0.352107    0.015152
H     -0.923057    2.303118    0.029486
