30

C     -1.816964   -0.188262   -2.289259
C     -1.551960    0.409976   -0.894585
N     -1.205623   -0.582523    0.173195
C     -1.387768    0.077778    1.492068
C     -2.141506   -1.737495    0.136601
C      0.196250   -1.104870    0.034018
C      1.304560   -0.074736    0.249395
C      1.739356    0.191090    1.564099
C      2.743217    1.128817    1.812267
C      3.350095    1.799045    0.752475
C      2.969743    1.516787   -0.559205
C      1.965115    0.576735   -0.823747
Br     1.616046    0.185935   -2.667965
H     -2.811338   -0.681604   -2.317278
H     -1.046575   -0.924784   -2.585035
H     -1.826401    0.627702   -3.042353
H     -2.474808    0.970351   -0.617725
H     -0.755049    1.179019   -0.982332
H     -0.824030    1.034545    1.549395
H     -2.457823    0.328806    1.672544
H     -1.059834   -0.584016    2.324225
H     -2.005655   -2.395045    1.025153
H     -3.201150   -1.395891    0.125369
H     -1.971252   -2.374084   -0.759319
H      0.362630   -1.924869    0.770706
H      0.333741   -1.603685   -0.946516
H      1.300884   -0.330404    2.404793
H      3.054835    1.331284    2.828870
H      4.130270    2.523872    0.946109
H      3.470995    2.020523   -1.375964
