42

C     -5.029166    2.079970   -0.302851
C     -3.814430    1.172572   -0.517566
C     -3.305046    0.489654    0.784141
C     -2.055457   -0.329993    0.456183
C     -2.176029   -1.690824    0.058265
C     -3.545424   -2.314162   -0.034282
O     -4.407759   -1.780440    0.964425
C     -4.372326   -0.434418    1.333188
O     -5.241102    0.003586    2.134064
C     -1.022446   -2.411365   -0.322738
O     -1.104865   -3.610986   -0.703737
N      0.186839   -1.791541   -0.281040
C      1.492014   -2.364913   -0.638390
C      2.418484   -1.204905   -0.419884
C      3.796999   -1.120382   -0.592380
C      4.423046    0.111142   -0.313795
C      5.808093    0.268056   -0.465318
C      6.407688    1.499696   -0.183358
C      5.632659    2.580381    0.250301
C      4.250156    2.440306    0.406394
C      3.633773    1.215439    0.128964
N      2.283030    1.080452    0.281815
C      1.704279   -0.114510    0.008421
C      0.318744   -0.500107    0.089363
C     -0.778548    0.272207    0.453584
O     -3.007818    1.440342    1.785891
H     -5.280662    2.588994   -1.257096
H     -4.813615    2.856308    0.460607
H     -5.911845    1.486041    0.012653
H     -4.080589    0.400494   -1.272210
H     -2.997153    1.787121   -0.955764
H     -3.496147   -3.415118    0.099804
H     -3.971370   -2.102295   -1.037558
H      1.748078   -3.206352    0.040195
H      1.502191   -2.679977   -1.703679
H      4.361185   -1.980693   -0.931261
H      6.423921   -0.558016   -0.800258
H      7.477143    1.617426   -0.301357
H      6.105466    3.529798    0.466071
H      3.660720    3.284333    0.742736
H     -0.633753    1.311525    0.713489
H     -2.588959    2.235076    1.363965
