16

C      2.251853   -0.012479   -0.108557
C      1.530996   -0.812112   -0.999922
C      0.133320   -0.763617   -1.012322
C     -0.551974    0.096051   -0.138037
C      0.178431    0.885239    0.765761
C      1.576029    0.833758    0.775038
C     -2.055426    0.122239   -0.125594
O     -2.547561   -0.900382    0.696088
H      3.333430   -0.052095   -0.099264
H      2.055101   -1.472202   -1.678960
H     -0.414008   -1.394636   -1.701701
H     -0.333299    1.538445    1.461743
H      2.135014    1.447349    1.469689
H     -2.442587   -0.029881   -1.155658
H     -2.431623    1.112821    0.218540
H     -2.417698   -0.598498    1.633154
