33

C      4.377577   -0.345869   -1.113853
C      4.025371    0.938450   -0.369684
N      2.567313    1.085458   -0.257154
C      2.053970    0.432444    0.953141
C      0.557960    0.450637    0.933109
O     -0.067301    1.218953    1.713461
N     -0.154955   -0.390800    0.017086
C     -1.583701   -0.341199   -0.113713
C     -2.360627   -1.453370    0.279704
C     -3.757200   -1.404541    0.149544
C     -4.379840   -0.263893   -0.355942
C     -3.617270    0.832779   -0.756328
C     -2.217353    0.799316   -0.662895
C     -1.424673    1.989732   -1.132993
C     -1.706182   -2.689598    0.833738
H      4.059298   -1.236480   -0.533672
H      3.879466   -0.359894   -2.106559
H      5.476407   -0.398908   -1.264744
H      4.435601    1.792515   -0.953265
H      4.521319    0.951724    0.627466
H      2.355133    2.108367   -0.176665
H      2.426098    0.956151    1.863015
H      2.387324   -0.626356    1.000262
H      0.365572   -1.147586   -0.480964
H     -4.368115   -2.248218    0.446095
H     -5.458274   -0.231808   -0.443318
H     -4.120484    1.706166   -1.152870
H     -1.221528    2.665140   -0.276551
H     -1.984064    2.557573   -1.906812
H     -0.463047    1.670275   -1.586982
H     -1.127857   -3.195220    0.032368
H     -1.019958   -2.415988    1.662933
H     -2.455978   -3.405954    1.232025
