42

C     -2.016088    4.026053   -1.371376
O     -2.730853    2.961239   -0.751458
C     -2.157627    1.772148   -0.272280
C     -2.976234    0.777979    0.329767
C     -2.382204   -0.430798    0.795620
C     -0.985844   -0.617290    0.668507
C     -0.299615   -1.867931    1.092561
O     -0.901079   -2.755427    1.755089
C      1.124847   -2.106101    0.681709
C      1.901975   -0.783159    0.707476
O      1.193097    0.224624   -0.016399
C     -0.193796    0.387252    0.093400
C     -0.774856    1.554855   -0.382995
C      3.283568   -0.962895    0.127425
C      3.473328   -1.020160   -1.264900
C      4.751286   -1.217521   -1.796256
C      5.852270   -1.370792   -0.943341
C      5.667441   -1.328952    0.442069
C      4.390516   -1.131756    0.976529
O      7.130293   -1.567718   -1.461347
O     -3.124402   -1.477960    1.381025
C     -4.530958   -1.529381    1.593807
O     -4.366428    0.941003    0.483567
C     -5.153651    2.066035    0.108137
H     -1.517411    3.664913   -2.295511
H     -1.266426    4.444440   -0.667059
H     -2.730484    4.828999   -1.645582
H      1.126760   -2.534428   -0.344077
H      1.605171   -2.834260    1.371754
H      1.981924   -0.445978    1.765772
H     -0.128945    2.297415   -0.830874
H      2.631735   -0.914566   -1.938314
H      4.884016   -1.254960   -2.870000
H      6.513931   -1.452924    1.105512
H      4.265972   -1.111910    2.052126
H      7.296865   -1.603848   -2.460260
H     -5.070450   -1.462800    0.625730
H     -4.785291   -2.502070    2.062207
H     -4.846064   -0.721939    2.287541
H     -6.209464    1.870646    0.386048
H     -5.110455    2.217644   -0.990765
H     -4.816372    2.972279    0.653630
