39

C      4.187665   -2.885613   -0.227258
O      4.033449   -1.597750    0.360743
C      2.946709   -0.737932    0.129704
C      2.919198    0.511027    0.779880
C      1.838573    1.406921    0.563373
C      0.790522    1.022528   -0.305257
C     -0.363372    1.904419   -0.604226
O     -0.600919    2.932498    0.084997
C     -1.238365    1.592801   -1.781265
C     -1.455521    0.076435   -1.921412
O     -0.225759   -0.644145   -1.771151
C      0.823168   -0.232792   -0.935057
C      1.895112   -1.096028   -0.727571
C     -2.516345   -0.425219   -0.958384
C     -2.202602   -0.807658    0.360403
C     -3.208871   -1.229746    1.234393
C     -4.540344   -1.265576    0.811954
C     -4.865056   -0.873063   -0.492176
C     -3.861671   -0.450477   -1.368806
O     -5.531493   -1.688690    1.694610
O      1.761323    2.677674    1.167796
C      2.703533    3.255767    2.064278
O      3.966403    0.856804    1.635158
H      4.233291   -2.797635   -1.333316
H      3.345302   -3.544989    0.070807
H      5.135223   -3.336572    0.132015
H     -0.733295    1.972505   -2.695336
H     -2.215331    2.117344   -1.691389
H     -1.813314   -0.114755   -2.956965
H      1.890520   -2.052774   -1.231713
H     -1.185998   -0.782634    0.723387
H     -2.953319   -1.526003    2.243897
H     -5.894593   -0.890895   -0.826435
H     -4.135498   -0.139819   -2.369580
H     -6.505889   -1.724808    1.418674
H      2.346761    4.264638    2.356057
H      3.689446    3.368796    1.566530
H      2.787661    2.639945    2.984189
H      4.753693    0.245471    1.814454
