42

C     -2.207026    0.691243   -1.625804
C     -2.169609    0.530770   -0.070789
C     -1.449954    1.741369    0.566478
C      0.060857    1.749877    0.217369
C      0.763000    0.397851    0.536425
C     -0.006986   -0.819502   -0.063444
C     -1.468916   -0.748322    0.411447
C     -2.433247   -1.871643    0.053673
C     -3.824879   -1.235057    0.227550
C     -3.597604    0.275055    0.455089
O     -4.574080    1.033792   -0.210916
C      0.680193   -2.101218    0.347575
C      2.015572   -2.172789    0.336863
C      2.830876   -0.965291    0.070588
C      2.226954    0.314964    0.111713
C      3.026986    1.452340   -0.116170
C      4.386120    1.313651   -0.410417
C      4.974227    0.044289   -0.457340
C      4.197958   -1.090810   -0.211048
O      6.329878   -0.099465   -0.744127
H     -1.202356    0.766581   -2.081083
H     -2.732144   -0.153913   -2.116455
H     -2.745197    1.623525   -1.899533
H     -1.558472    1.709112    1.673312
H     -1.914564    2.689304    0.218357
H      0.530107    2.556302    0.820612
H      0.206471    2.012444   -0.851300
H      0.757160    0.295626    1.645951
H      0.041986   -0.784203   -1.171306
H     -1.433136   -0.735220    1.529658
H     -2.278555   -2.203063   -0.996257
H     -2.309054   -2.742298    0.733571
H     -4.435333   -1.413813   -0.684922
H     -4.352450   -1.678652    1.100043
H     -3.648327    0.477160    1.552007
H     -4.476349    1.965507    0.116945
H      0.105353   -2.987499    0.582940
H      2.500077   -3.119039    0.544765
H      2.617598    2.450595   -0.065963
H      4.985447    2.196974   -0.591275
H      4.660648   -2.069906   -0.243806
H      6.920771    0.703373   -0.926346
