15

C     -0.505976   -0.015599   -0.479165
C      0.730800    0.271274    0.405102
C      1.969823    0.472140   -0.429570
O      2.434129    1.630119   -0.601040
O      2.589159   -0.609591   -1.044652
O      0.928188   -0.726861    1.378090
C     -1.760208   -0.124905    0.354502
O     -2.086680   -1.224755    0.874815
O     -2.539989    1.001007    0.604591
O     -0.328793   -1.151044   -1.293293
H     -0.636417    0.852406   -1.161796
H      0.535196    1.221516    0.950491
H      1.235458   -1.552893    0.923120
H     -2.291089    1.907938    0.228306
H     -0.273601   -1.950753   -0.709499
