42

C      5.311797    2.646340   -0.500669
O      5.202614    1.234878   -0.366647
C      4.358117    0.465477   -1.173413
O      3.678393    1.005892   -2.088544
C      4.257496   -1.021701   -0.947864
C      3.826002   -1.343330    0.494544
C      2.448611   -0.808487    0.799178
C      1.309041   -1.511943    0.374672
C      0.028470   -0.999702    0.628993
C     -0.113773    0.228551    1.309250
C      1.021359    0.931129    1.724322
C      2.295867    0.418044    1.467862
N     -1.354404    0.727618    1.557559
C     -2.485882    0.084535    1.161315
C     -2.382824   -1.149446    0.495412
C     -1.122657   -1.685956    0.224954
O     -3.727989    0.654040    1.474813
C     -4.902494    0.510489    0.721409
C     -4.877110    0.375347   -0.679565
C     -6.071988    0.252795   -1.395984
C     -7.297200    0.275303   -0.723819
C     -7.329364    0.428050    0.665058
C     -6.136007    0.552152    1.383785
N      5.537219   -1.670809   -1.238158
H      6.035679    3.028607    0.247875
H      4.323909    3.121474   -0.321204
H      5.674195    2.905001   -1.518181
H      3.493613   -1.443344   -1.640155
H      4.567819   -0.932406    1.214997
H      3.823968   -2.446700    0.635308
H      1.423180   -2.452429   -0.152312
H      0.919089    1.876668    2.242565
H      3.164955    0.979019    1.788674
H     -3.267540   -1.701581    0.206798
H     -1.048546   -2.636600   -0.289483
H     -3.938819    0.384387   -1.218430
H     -6.048215    0.147592   -2.473073
H     -8.221195    0.181297   -1.279482
H     -8.278582    0.451638    1.185040
H     -6.168657    0.672641    2.459297
H      6.289326   -1.240080   -0.651208
H      5.782527   -1.494448   -2.239937
