44

C      5.771454    0.364343    0.472138
C      5.201010   -0.663927   -0.504281
C      3.730099   -1.001828   -0.216919
C      2.785218    0.173301   -0.522560
C      1.302484   -0.236424   -0.501014
C      0.801482   -0.664086    0.899429
C     -0.714923   -0.974601    0.908306
C     -1.531682    0.304580    0.775568
C     -1.051650    1.490968    1.369350
C     -1.824361    2.660639    1.326098
C     -3.072331    2.656969    0.701196
C     -3.569684    1.478638    0.116849
C     -2.800020    0.310634    0.165747
O     -4.820626    1.424354   -0.516125
C     -5.708451    2.530670   -0.639708
C      0.275326    1.472948    2.015619
O      0.670399    2.441382    2.717478
O      1.095144    0.352573    1.861825
O     -1.013220   -1.912617   -0.131138
C     -1.949511   -2.946138   -0.006259
O     -2.622476   -3.086994    1.050842
C     -2.194059   -3.854563   -1.162168
H      5.286877    1.352374    0.329193
H      5.625037    0.028071    1.520602
H      6.859979    0.483383    0.288141
H      5.799085   -1.596860   -0.417012
H      5.312131   -0.290679   -1.545509
H      3.627402   -1.309772    0.845680
H      3.447441   -1.869875   -0.851739
H      3.013524    0.567113   -1.537093
H      2.953470    0.998662    0.201180
H      1.147384   -1.064711   -1.226159
H      0.704246    0.629403   -0.858608
H      1.335849   -1.591004    1.197518
H     -0.946668   -1.422236    1.900505
H     -1.461332    3.578902    1.770757
H     -3.643823    3.574793    0.680715
H     -3.205163   -0.588396   -0.276154
H     -5.223453    3.346977   -1.215596
H     -6.005503    2.896063    0.366009
H     -6.619334    2.205538   -1.182780
H     -2.416195   -4.880943   -0.801212
H     -3.055566   -3.477806   -1.751565
H     -1.295011   -3.889815   -1.812500
