22

C     -2.185000    0.469482    0.427747
C     -1.293255   -0.784050    0.376002
C      0.037271   -0.575951    1.137225
C      0.862328    0.552341    0.555656
O      0.856368    1.639725    1.115442
C      1.664595    0.376896   -0.717359
C      3.126977    0.613046   -0.460913
O      3.576956    1.783812   -0.342934
O      3.985433   -0.468243   -0.305911
O      1.186318    1.222348   -1.734493
O      0.793308   -1.759695    1.123516
O     -1.032768   -1.137323   -0.959070
O     -3.461400    0.183888   -0.078324
H     -2.298428    0.798957    1.482579
H     -1.719579    1.307543   -0.140677
H     -1.838168   -1.613865    0.886555
H     -0.201049   -0.317732    2.196891
H      1.555291   -0.666616   -1.080612
H      1.247736    2.159921   -1.412431
H      0.353244   -2.391565    1.750577
H     -1.811577   -1.663274   -1.279053
H     -3.404602    0.270355   -1.065648
