32

C      3.023594   -0.552124    1.439750
C      1.884006    0.226838    0.765940
C      2.477829    1.265524   -0.197313
C      0.911945   -0.770381    0.067596
C     -0.455516   -0.187380   -0.433090
C     -1.159639    0.560093    0.697574
O     -1.176931    0.064673    1.857697
N     -1.857086    1.786748    0.467836
C     -1.745450    2.476286   -0.772360
O     -2.371150    3.554385   -0.952691
N     -0.910477    1.956376   -1.801536
C     -0.224679    0.710944   -1.644204
O      0.528329    0.315780   -2.576278
C     -1.379225   -1.338874   -0.932966
C     -1.753149   -2.351692    0.123313
C     -2.900703   -2.272223    0.803481
H      3.612255   -1.115634    0.683979
H      2.615054   -1.268661    2.184044
H      3.702764    0.142569    1.978943
H      1.348243    0.772952    1.571022
H      1.712112    2.012597   -0.486454
H      3.297006    1.830484    0.296902
H      2.887220    0.774022   -1.105495
H      0.693080   -1.575061    0.802012
H      1.441704   -1.271727   -0.772755
H     -2.422653    2.208119    1.238955
H     -0.789515    2.500276   -2.685611
H     -2.306691   -0.910900   -1.377984
H     -0.868684   -1.891546   -1.752382
H     -1.070100   -3.168716    0.335748
H     -3.137742   -3.016614    1.556471
H     -3.605749   -1.467133    0.619857
