40

C     -0.154185    0.443341    2.004518
C     -0.863612   -0.599892    1.566999
C     -2.362307   -0.619522    1.723922
C     -3.012728    0.123450    0.589100
C     -3.356966    1.478205    0.732209
C     -3.912819    2.180920   -0.341242
C     -4.118556    1.541535   -1.568216
C     -3.770747    0.190870   -1.717941
C     -3.220105   -0.514521   -0.645108
O     -4.664376    2.256418   -2.631840
C     -0.193062   -1.711893    0.860910
C     -0.144588   -2.919610    1.429820
C      0.415029   -1.482087   -0.501438
C      1.804368   -0.911330   -0.395407
C      2.059762    0.420939   -0.793619
C      3.362394    0.897670   -0.688159
C      4.373115    0.127184   -0.217165
C      4.169636   -1.187271    0.189897
C      2.867840   -1.710102    0.096892
O      5.547704    0.853553   -0.227267
C      5.255277    2.162883   -0.736063
O      3.850311    2.147559   -1.018815
H      0.920612    0.468439    1.899930
H     -0.639493    1.279684    2.491513
H     -2.731332   -1.667289    1.740571
H     -2.652753   -0.172349    2.700682
H     -3.191121    1.991730    1.671932
H     -4.176920    3.225886   -0.221932
H     -3.921959   -0.310946   -2.665333
H     -2.944878   -1.554782   -0.777906
H     -4.823540    1.821767   -3.532916
H     -0.575926   -3.090074    2.408376
H      0.334787   -3.753133    0.930530
H     -0.244208   -0.797713   -1.078387
H      0.455439   -2.431684   -1.079549
H      1.273043    1.060402   -1.172999
H      4.987401   -1.788180    0.561995
H      2.686033   -2.732126    0.402409
H      5.830910    2.351199   -1.666656
H      5.482524    2.930870    0.030510
