39

C     -4.038066   -0.689650    1.013561
C     -4.027285   -0.486451   -0.312037
C     -5.278056   -0.149112   -1.016503
O     -5.260158    0.031844   -2.263343
O     -6.480182   -0.026202   -0.323246
O     -2.859172   -0.599585   -1.090295
C     -1.514582   -0.723976   -0.615012
C     -0.693077   -1.360104   -1.708187
C      0.592589   -1.049056   -1.933460
C      1.292951    0.103064   -1.247081
C      0.559468    0.566390    0.040809
C     -0.959844    0.660872   -0.217597
O     -1.617283    1.105617    0.942549
C      1.089677    1.894059    0.536719
O      1.374087    2.814213   -0.275700
O      1.195481    2.142702    1.902370
C      2.735457   -0.267159   -0.967204
O      3.627150    0.459669   -1.380718
C      3.096801   -1.536143   -0.227027
C      4.106645   -1.300776    0.903584
C      3.543073   -0.433473    1.989505
O      2.726112   -0.916190    2.817168
O      3.899818    0.908597    2.082756
H     -4.951871   -0.600315    1.586921
H     -3.150461   -0.955315    1.565890
H     -7.338784    0.206077   -0.808110
H     -1.465883   -1.420697    0.247921
H     -1.132328   -2.180613   -2.268359
H      1.118815   -1.577301   -2.724118
H      1.279298    0.938542   -1.982701
H      0.722407   -0.191965    0.838592
H     -1.146627    1.367513   -1.063420
H     -1.678125    2.094885    0.885444
H      0.936363    1.442390    2.586682
H      2.186796   -2.025195    0.183296
H      3.547614   -2.242314   -0.956655
H      5.035673   -0.846930    0.496080
H      4.387879   -2.282583    1.341938
H      4.537631    1.331025    1.418986
