47

C     -4.627853    1.522971    0.052783
C     -3.863305    0.456951    0.837154
C     -2.991285   -0.446922   -0.068563
C     -1.901135    0.319117   -0.881872
C     -1.164758   -0.786348   -1.673753
C     -0.239290   -1.550636   -0.672805
C      1.204106   -0.950425   -0.833689
C      1.419425    0.348479   -0.011053
C      0.957618    0.118637    1.417273
C     -0.521735   -0.007951    1.212719
C     -0.902318    1.032393    0.106887
C      0.470481    1.449862   -0.532639
O      0.876630    2.736048   -0.126270
N     -0.789778   -1.387650    0.724668
C     -2.268734   -1.578713    0.757648
O     -2.590070   -2.847505    0.244887
C      2.910901    0.425746   -0.035606
C      3.772708    1.477542    0.280498
C      5.150996    1.211784    0.342161
C      5.637313   -0.093784    0.125668
C      4.749184   -1.147818   -0.146957
C      3.385557   -0.864440   -0.206079
N      2.339319   -1.796862   -0.483198
H     -3.931194    2.286341   -0.351392
H     -5.197408    1.060311   -0.780975
H     -5.344429    2.035511    0.728634
H     -4.609769   -0.183312    1.356182
H     -3.255681    0.948987    1.624036
H     -3.692598   -0.922901   -0.792364
H     -2.354717    1.047642   -1.586959
H     -1.888920   -1.500039   -2.126589
H     -0.639249   -0.348267   -2.547632
H     -0.208969   -2.628059   -0.944690
H      1.365272   -0.712347   -1.912150
H      1.198085    0.982061    2.075625
H      1.387019   -0.800192    1.878473
H     -1.041855    0.193268    2.176761
H     -1.397326    1.918737    0.559904
H      0.425465    1.460112   -1.641616
H      0.753378    2.817951    0.853860
H     -2.596643   -1.551043    1.824676
H     -3.535687   -3.024162    0.491042
H      3.396047    2.469637    0.486632
H      5.842560    2.011735    0.572443
H      6.700683   -0.287485    0.179720
H      5.114800   -2.154113   -0.304309
H      2.497157   -2.760848   -0.852231
