19

C     -0.919719    0.253827   -1.188041
N     -0.275193   -0.134240    0.090184
C     -0.493772    0.922772    1.107444
C     -0.914124   -1.382799    0.572596
C      1.181233   -0.402984   -0.101752
C      1.984385    0.778336   -0.595040
O      3.183978    0.654170   -0.781448
H     -0.727586   -0.506203   -1.978035
H     -0.548856    1.233642   -1.555838
H     -2.022041    0.350715   -1.065858
H     -0.118450    1.909587    0.763669
H      0.021890    0.670844    2.061004
H     -1.578148    1.047846    1.326336
H     -2.006837   -1.242182    0.734373
H     -0.470067   -1.713229    1.538734
H     -0.785765   -2.209055   -0.162670
H      1.323281   -1.232246   -0.831993
H      1.636771   -0.739915    0.857450
H      1.529018    1.741113   -0.791115
