48

C     -1.869205    1.563464   -0.739121
C     -2.671395    0.236550   -0.584451
C     -3.627967    0.328721    0.638582
C     -3.014375   -0.290300    1.927898
C     -1.464267   -0.302072    1.944683
C     -0.807795   -1.023082    0.700997
C     -1.842713   -1.030485   -0.460168
C     -1.387938   -1.304647   -1.885417
C     -0.026788   -0.720501   -2.168266
O      0.350606   -0.654400   -3.370532
C      0.876794   -0.248591   -1.082783
C      2.114692    0.329535   -1.422750
C      3.013509    0.781214   -0.437280
C      4.264604    1.374411   -0.763944
C      5.127792    1.774623    0.259577
C      4.778275    1.607754    1.595984
C      3.550991    1.036319    1.939834
C      2.660509    0.621939    0.927914
C      1.425781    0.046679    1.264937
C      0.506002   -0.356511    0.278577
O      3.217388    0.881838    3.286662
O      4.696885    1.591928   -2.076357
O     -2.357860   -0.709471   -2.743494
C     -3.329283   -0.068489   -1.929707
O     -1.348481   -2.693122   -2.106254
C     -0.476409   -2.484922    1.084095
H     -1.232593    1.565307   -1.646474
H     -1.227433    1.788614    0.129427
H     -2.573934    2.415249   -0.850588
H     -3.905131    1.387126    0.837423
H     -4.580827   -0.202369    0.424594
H     -3.386089    0.267033    2.814798
H     -3.371695   -1.338105    2.033136
H     -1.124054    0.749721    2.029448
H     -1.134733   -0.783271    2.891840
H     -2.570168   -1.850063   -0.226124
H      2.362003    0.409883   -2.467628
H      6.081989    2.223994    0.014018
H      5.465636    1.927701    2.368904
H      1.176126   -0.098526    2.308097
H      3.844043    1.173872    4.027598
H      4.159067    1.385942   -2.904803
H     -4.197959   -0.753629   -1.808624
H     -3.696683    0.852067   -2.433062
H     -1.278798   -2.835494   -3.086679
H     -1.387793   -3.023933    1.421531
H     -0.043635   -3.030939    0.218744
H      0.263309   -2.518563    1.912881
