32

C     -5.065894   -1.133014    1.376848
C     -3.850045   -0.507521    0.759113
C     -3.987691    0.457433   -0.246573
C     -2.859124    1.023259   -0.857678
C     -1.562827    0.608155   -0.465466
C     -1.434269   -0.380946    0.538018
C     -2.570887   -0.933557    1.135192
O     -0.236402   -0.799364    0.926315
C      0.895017   -0.330601    0.415543
C      2.110459   -0.832386    0.888645
C      3.323770   -0.366250    0.378623
C      3.314633    0.619999   -0.622940
C      2.104717    1.135957   -1.110783
C      0.875404    0.661626   -0.592010
C     -0.380908    1.133192   -1.034288
O     -0.446948    2.017622   -1.931661
O      2.134536    2.114403   -2.105713
O      4.512318   -0.906901    0.892087
C      5.818054   -0.528545    0.468455
O     -3.035260    1.989396   -1.849325
H     -5.366329   -2.021044    0.782547
H     -5.909382   -0.410482    1.400605
H     -4.856891   -1.449565    2.420990
H     -4.976556    0.772644   -0.557272
H     -2.454610   -1.696484    1.895946
H      2.112339   -1.592301    1.660649
H      4.243371    0.994578   -1.031357
H      3.006748    2.463056   -2.486096
H      5.946632   -0.745871   -0.612966
H      6.567995   -1.113056    1.039664
H      5.985061    0.551712    0.664383
H     -3.957032    2.294590   -2.139494
