50

C      1.152964    1.824618    3.279804
C      0.548017    1.203757    2.018856
C      1.564410    0.335617    1.326888
O      1.900854   -0.765336    1.845916
N      2.177498    0.772578    0.103943
C      3.287149    0.035742   -0.513833
C      3.518750    0.475383   -1.975824
C      3.956279    1.908177   -2.112719
O      5.166259    2.213225   -1.940444
O      3.037815    2.909215   -2.416604
C      4.540230    0.170657    0.309437
O      4.804695    1.250353    0.902831
O      5.437474   -0.891280    0.374687
N     -0.631120    0.407221    2.372311
C     -1.907161    0.567930    1.729307
O     -2.043851    1.391976    0.780231
C     -3.077754   -0.291205    2.156945
C     -3.144146   -1.613571    1.366605
C     -3.227388   -1.415068   -0.122734
C     -4.379507   -1.178956   -0.867545
N     -4.070947   -1.002455   -2.172569
C     -2.734673   -1.123464   -2.258524
C     -1.949099   -1.017439   -3.405577
C     -0.558944   -1.184738   -3.268350
C      0.007225   -1.451134   -2.002967
C     -0.808069   -1.543683   -0.860561
C     -2.183474   -1.375388   -1.027897
N     -4.349026    0.436627    2.070704
H      1.470454    1.034330    3.995793
H      2.035041    2.447272    3.015299
H      0.401349    2.475056    3.776479
H      0.259898    2.040423    1.344273
H      1.824592    1.649441   -0.342231
H      3.015643   -1.042666   -0.543313
H      2.582470    0.324073   -2.554502
H      4.289843   -0.180477   -2.436745
H      2.056090    2.702119   -2.554814
H      6.294237   -0.815804    0.909468
H     -0.524519   -0.346789    3.090016
H     -2.925972   -0.564932    3.225218
H     -4.030977   -2.194032    1.701908
H     -2.250694   -2.229684    1.606585
H     -5.386498   -1.131491   -0.473787
H     -4.738865   -0.807826   -2.951457
H     -2.392870   -0.815824   -4.371829
H      0.080426   -1.113273   -4.138877
H      1.074362   -1.592794   -1.913414
H     -0.377545   -1.745208    0.111120
H     -4.302089    1.263407    2.710272
H     -4.488834    0.804591    1.102218
