22

C     -1.288708   -1.668112   -0.036726
C     -1.031192   -0.179360    0.227541
C     -2.217809    0.698376   -0.237186
O     -1.645377    1.771423   -0.957745
C     -0.297343    1.584523   -1.157839
O      0.396503    2.372725   -1.852971
C      0.222928    0.343216   -0.527947
C      1.427412    0.634181    0.408011
C      1.958954   -0.640951    1.077260
O      2.469170    1.263117   -0.297382
H     -2.193336   -1.999043    0.516324
H     -0.425861   -2.274340    0.309442
H     -1.442872   -1.853753   -1.121468
H     -0.913278   -0.034654    1.324830
H     -2.789761    1.090395    0.630897
H     -2.909002    0.144472   -0.909150
H      0.528528   -0.355655   -1.338759
H      1.099501    1.329699    1.211988
H      1.207585   -1.062071    1.776692
H      2.213505   -1.405997    0.312989
H      2.873260   -0.403907    1.661553
H      2.757191    0.645718   -1.020354
