19

C     -2.135103   -1.225302   -0.356386
C     -0.760307   -0.639429   -0.155238
C      0.347797   -1.503279   -0.179476
C      1.639921   -1.013295    0.001114
C      1.841737    0.351923    0.209076
C      0.756181    1.236639    0.238183
C     -0.562996    0.752528    0.056062
C     -1.724984    1.682868    0.084894
O     -1.578180    2.919839    0.270185
O      0.995962    2.595152    0.448508
O      2.719080   -1.894134   -0.028008
H     -2.608184   -0.776376   -1.254932
H     -2.098233   -2.325391   -0.506635
H     -2.763828   -1.026308    0.536828
H      0.211135   -2.566042   -0.339589
H      2.847308    0.728691    0.348981
H     -2.731212    1.314632   -0.053876
H      1.932922    2.958160    0.580534
H      3.670984   -1.570875    0.099774
