31

C     -4.641686    1.639437   -0.403475
C     -3.251369    1.121613   -0.229625
O     -2.306167    1.645510   -0.879215
N     -2.993206    0.064488    0.704507
C     -1.657137   -0.488698    0.916423
C     -1.254558   -1.379651   -0.266085
C      0.042431   -2.174682   -0.009569
N      1.232366   -1.333088    0.202883
C      1.558175   -0.503642   -0.966448
C      3.027058   -0.067003   -0.925120
C      3.308302    0.928062    0.208899
C      4.720183    1.427691    0.142815
O      5.656025    0.664655    0.323014
H     -4.918733    2.256345    0.476424
H     -4.713598    2.261387   -1.320980
H     -5.350538    0.789767   -0.492371
H     -3.779056   -0.290751    1.294889
H     -1.661581   -1.095439    1.848141
H     -0.933858    0.343553    1.049387
H     -2.070639   -2.112976   -0.446923
H     -1.157608   -0.771981   -1.189683
H     -0.100584   -2.819822    0.884289
H      0.222257   -2.861420   -0.865502
H      1.084513   -0.722659    1.038465
H      1.406432   -1.081729   -1.905479
H      0.902029    0.394538   -1.002583
H      3.673877   -0.964714   -0.810751
H      3.275484    0.413034   -1.897526
H      2.618505    1.795550    0.124225
H      3.147628    0.445536    1.196321
H      4.915052    2.477089   -0.053064
