47

C      0.587724    0.733788    2.094892
C     -0.017950    0.449807    0.734296
C      0.761715    0.283492   -0.369892
C      0.132755   -0.080746   -1.722531
O     -1.233153    0.340164   -1.784395
C     -2.066792    0.329314   -0.668924
C     -1.501194    0.335438    0.612371
C     -2.355032    0.272902    1.730929
C     -3.742798    0.237283    1.561959
C     -4.302582    0.253130    0.272002
C     -3.454114    0.317292   -0.837557
O     -5.688495    0.242468    0.053586
C     -6.639114   -0.335513    0.904853
O     -6.303544   -1.183749    1.775105
C     -8.083422   -0.029418    0.698282
C      0.869035    0.599120   -2.888563
C      0.174858   -1.605735   -1.910919
C      2.240421    0.276518   -0.253128
C      2.911547   -0.888586    0.143288
C      4.304189   -0.892861    0.263966
C      5.043424    0.275469   -0.005337
C      4.366142    1.438448   -0.391505
C      2.973865    1.442719   -0.512061
O      6.441390    0.322384    0.100368
C      7.255911   -0.781559    0.481513
H      1.609333    1.160286    2.035682
H      0.624475   -0.204609    2.686513
H     -0.020258    1.488041    2.636116
H     -1.962193    0.254564    2.738105
H     -4.372271    0.232110    2.441013
H     -3.873406    0.331372   -1.835828
H     -8.620698   -0.047345    1.670082
H     -8.195298    0.978259    0.245914
H     -8.528323   -0.785702    0.018755
H      1.916873    0.238848   -2.971885
H      0.875148    1.700845   -2.745990
H      0.352556    0.379041   -3.847603
H     -0.335268   -2.114137   -1.064615
H     -0.345159   -1.891173   -2.850482
H      1.222289   -1.971576   -1.965586
H      2.355186   -1.791884    0.361522
H      4.795138   -1.806871    0.568804
H      4.922425    2.344197   -0.597061
H      2.467009    2.353974   -0.804380
H      8.318948   -0.464831    0.481446
H      6.985782   -1.120298    1.504041
H      7.132925   -1.614678   -0.242398
