40

C      4.246846   -0.547580   -1.695707
C      5.277541   -0.820128   -0.799777
C      5.055970   -0.688229    0.571858
C      3.807650   -0.290169    1.061566
C      2.717390   -0.109019    0.164701
C      2.973116   -0.184079   -1.228892
C      1.900035    0.142582   -2.187336
O      2.105784    0.111131   -3.431343
C      0.584908    0.524602   -1.672603
O     -0.319557    0.897637   -2.468412
C      0.319955    0.440278   -0.221758
C      1.307278    0.097657    0.642730
O      1.007576   -0.134521    1.989532
C     -1.059873    0.708025    0.252539
C     -1.332723    1.974107    0.792509
C     -2.608482    2.272330    1.265330
C     -3.644214    1.340162    1.171197
C     -3.423715    0.091201    0.543342
C     -2.097312   -0.261600    0.159616
C     -1.835524   -1.669842   -0.260766
O     -0.683691   -2.067150   -0.582418
C     -2.942141   -2.630076   -0.262820
O     -2.736737   -3.844152   -0.529885
C     -4.300532   -2.161975    0.013734
C     -4.548678   -0.884790    0.321578
O     -5.889869   -0.498765    0.367119
O     -4.876400    1.651849    1.743979
O     -0.321315    2.932890    0.873234
O      3.716109   -0.046443    2.433265
O      6.526435   -1.203366   -1.284134
H      4.443905   -0.624426   -2.758044
H      5.871614   -0.856119    1.264425
H      0.077394   -0.062769    2.382929
H     -2.795038    3.236279    1.722341
H     -5.126141   -2.851679   -0.117321
H     -6.194147    0.458095    0.254304
H     -5.043404    2.537100    2.208343
H     -0.489227    3.852766    1.263715
H      3.030350    0.571350    2.843881
H      7.298862   -1.403161   -0.659334
