17

C     -0.879995   -1.456223    0.783063
C     -0.688132   -0.036465    0.348269
C      0.449937    0.477670   -0.116009
C      0.171957    1.851637   -0.467897
O      0.991947    2.664665   -0.969081
O     -1.144320    2.158038   -0.182778
C     -1.780063    1.001964    0.353635
C      1.736013   -0.254130   -0.356557
O      1.656771   -0.944933   -1.571090
H     -0.213763   -1.680324    1.642171
H     -1.932252   -1.621697    1.095823
H     -0.644769   -2.143113   -0.056781
H     -2.128485    1.199926    1.389205
H     -2.622026    0.689881   -0.299628
H      2.575948    0.474332   -0.391285
H      1.926640   -0.966719    0.476141
H      2.524591   -1.414508   -1.677201
