41

C     -0.964804    1.712934    0.967336
C     -0.759779    0.857732   -0.322674
C      0.221780    1.669498   -1.253971
C      1.700893    1.672489   -0.771316
C      2.144278    0.220111   -0.609273
C      1.282488   -0.462599    0.460080
C     -0.158114   -0.587306   -0.071940
C     -1.082523   -1.599385    0.689495
C     -2.469412   -1.646978   -0.014384
C     -3.084841   -0.261607   -0.280737
C     -2.126190    0.673350   -1.053321
O     -2.743169    1.920324   -1.256789
C     -1.256727   -1.290716    2.194689
O     -0.505093   -2.886499    0.621465
O      1.995019   -1.655315    0.766243
C      3.344836   -1.396246    0.561666
O      4.269813   -2.171161    0.920918
C      3.517988   -0.138199   -0.155347
C      4.665728    0.433836   -0.509983
H     -1.250684    2.751821    0.696811
H     -0.051942    1.797375    1.583782
H     -1.776584    1.350947    1.612792
H      0.199787    1.236186   -2.278832
H     -0.119831    2.722299   -1.359814
H      2.332153    2.172493   -1.536586
H      1.808177    2.230472    0.183178
H      2.016808   -0.288950   -1.593773
H      1.295202    0.145673    1.388119
H     -0.059015   -1.037580   -1.087914
H     -3.180285   -2.251660    0.590558
H     -2.369708   -2.161904   -0.995657
H     -3.419931    0.202816    0.667798
H     -4.003244   -0.406670   -0.890402
H     -1.930433    0.202412   -2.046765
H     -3.430180    1.792078   -1.962168
H     -0.327406   -0.892066    2.647128
H     -1.510574   -2.225157    2.740532
H     -2.094108   -0.601365    2.402199
H     -0.400015   -3.144183   -0.331903
H      4.669264    1.321328   -1.128624
H      5.610376    0.019374   -0.182618
