28

C     -2.829854   -2.900515   -0.501731
O     -3.034472   -1.628378    0.104402
C     -2.029292   -0.667538    0.291533
C     -2.373989    0.541876    0.898955
C     -1.392343    1.514609    1.117988
N     -0.115568    1.286605    0.710013
C      0.262511    0.129076    0.100505
C     -0.696693   -0.879968   -0.106332
C      1.682142   -0.031603   -0.294431
C      2.089773   -0.934229   -1.295707
C      3.443237   -1.028248   -1.627240
C      4.378094   -0.225690   -0.973881
C      3.942365    0.669615    0.003045
N      2.621169    0.747425    0.314199
C     -1.745833    2.828366    1.748613
O     -2.347535    3.670077    0.803837
H     -2.466292   -2.773321   -1.543347
H     -2.099083   -3.492004    0.089306
H     -3.793398   -3.449430   -0.526391
H     -3.398339    0.719147    1.203850
H     -0.411420   -1.823368   -0.546433
H      1.379585   -1.542416   -1.838060
H      3.766010   -1.717856   -2.396573
H      5.428346   -0.291475   -1.226953
H      4.653831    1.304406    0.513998
H     -0.836991    3.310704    2.175246
H     -2.456242    2.662038    2.586177
H     -1.619718    4.002095    0.215415
