38

C     -3.600264    1.963433    1.837031
C     -3.817833    0.442549    1.904109
C     -3.186763   -0.322728    0.714405
C     -3.680094    0.199347   -0.614024
O     -3.052876    1.115623   -1.209689
O     -4.853411   -0.296662   -1.174997
N     -1.719090   -0.291183    0.773364
C     -0.904282   -1.125110   -0.065142
O     -1.444089   -1.907469   -0.895112
C      0.600896   -1.020504   -0.001062
C      1.112539   -0.120287   -1.138426
C      2.596044    0.119802   -1.024131
C      3.086022    1.119217   -0.167550
C      4.463033    1.324592   -0.038708
C      5.363273    0.530432   -0.756409
C      4.880102   -0.474945   -1.604977
C      3.503525   -0.682218   -1.735638
O      6.732521    0.746095   -0.618248
N      1.227238   -2.344761   -0.066720
O     -5.194762    0.168054    1.951151
H     -4.158599    2.403386    0.984031
H     -3.972598    2.433581    2.771736
H     -2.524514    2.212558    1.732951
H     -3.339102    0.063528    2.837816
H     -3.503546   -1.385526    0.806954
H     -5.390339   -1.021581   -0.714374
H     -1.240285    0.312087    1.479230
H      0.883481   -0.554527    0.969143
H      0.873197   -0.579378   -2.123425
H      0.583567    0.858232   -1.102667
H      2.401449    1.736930    0.400675
H      4.831009    2.099571    0.621618
H      5.569731   -1.097422   -2.160742
H      3.145446   -1.468271   -2.388941
H      7.410093    0.187343   -1.123797
H      0.965419   -2.816694   -0.963202
H      0.859336   -2.930107    0.718578
H     -5.505473    0.403013    2.864649
