18

C      1.227178    1.497047   -0.609592
C      0.819611    0.191349   -0.454123
N      1.608827   -0.400124    0.455602
C      2.486939    0.550344    0.826373
N      2.283739    1.727292    0.195334
C     -0.355902   -0.461154   -1.117874
C     -1.674453   -0.102708   -0.417858
N     -1.746120   -0.666872    0.931344
H      0.780355    2.237922   -1.259294
H      1.550483   -1.380557    0.810080
H      3.268244    0.391813    1.557854
H     -0.404845   -0.121279   -2.174790
H     -0.218641   -1.563982   -1.127336
H     -2.516587   -0.502672   -1.024780
H     -1.789581    1.003225   -0.369951
H     -1.602783   -1.702385    0.898920
H     -2.691366   -0.470079    1.332501
H     -1.025098   -0.227181    1.547590
