18

C      2.497435    0.598907    0.275066
C      1.376346    0.425820   -0.706351
O      1.332041    1.146355   -1.691951
C      0.310856   -0.622736   -0.504122
C     -1.066831    0.010964   -0.221632
C     -1.046669    0.792572    1.067174
O     -0.870292    0.206110    2.168091
O     -1.207567    2.172196    1.044188
N     -2.108110   -1.022301   -0.172827
H      2.404282   -0.108246    1.125561
H      2.482441    1.634503    0.674712
H      3.467631    0.419514   -0.233634
H      0.252838   -1.240621   -1.426363
H      0.586401   -1.306003    0.328607
H     -1.310696    0.710639   -1.053488
H     -1.897398   -1.725963    0.572537
H     -3.036792   -0.581570    0.022385
H     -2.165916   -1.510139   -1.096345
