46

C      4.965839    2.867912   -0.879297
C      5.247780    1.540228   -0.243894
O      5.944071    1.483253    0.758701
C      4.697029    0.275727   -0.843854
C      3.671308   -0.368855    0.094401
C      3.083606   -1.646749   -0.524179
C      2.095215   -2.350720    0.425935
C      0.834229   -1.516066    0.654747
C      0.675797   -0.848038    1.888636
C     -0.460550   -0.075852    2.134269
C     -1.458294    0.066442    1.164150
C     -1.311611   -0.562919   -0.085978
C     -0.170124   -1.361679   -0.344023
O     -0.072916   -1.991231   -1.590774
C     -2.359076   -0.345023   -1.122454
O     -2.082537   -0.533801   -2.337294
C     -3.685265    0.213437   -0.741038
C     -3.797640    0.886418    0.497127
C     -2.662680    0.880962    1.448712
O     -2.730388    1.555025    2.513678
C     -4.990818    1.552405    0.826453
C     -6.075605    1.541692   -0.053327
C     -5.986317    0.840420   -1.254090
C     -4.819931    0.148376   -1.594826
O     -4.848173   -0.614676   -2.764525
O     -7.254102    2.214114    0.263300
O      1.654048   -0.948207    2.879665
O      1.770201   -3.620574   -0.076793
H      5.421418    3.691001   -0.288321
H      5.387870    2.886806   -1.905781
H      3.868807    3.029759   -0.931639
H      4.212510    0.502345   -1.819066
H      5.535672   -0.429281   -1.032128
H      4.161674   -0.618513    1.061193
H      2.854218    0.359831    0.289618
H      3.915760   -2.349879   -0.749084
H      2.591208   -1.391682   -1.485477
H      2.639040   -2.515472    1.383739
H     -0.561499    0.414860    3.094580
H      0.701024   -2.562862   -1.893395
H     -5.083018    2.081683    1.766832
H     -6.842187    0.807711   -1.917085
H     -4.177832   -1.340147   -2.976775
H     -7.354032    2.729864    1.129870
H      1.563492   -0.474707    3.771038
H      1.292782   -4.103337    0.648228
