13

C      0.859812   -0.171379   -0.766667
C      2.099843   -0.664513   -0.153046
N      3.076851   -1.053161    0.330292
C     -0.129751    0.316560    0.303366
C     -1.335657    0.946661   -0.342626
O     -2.086988    0.269203   -1.093551
O     -1.625246    2.285774   -0.112691
N     -0.528537   -0.788320    1.180309
H      0.407958   -0.988593   -1.369137
H      1.118856    0.666351   -1.449395
H      0.377196    1.091827    0.921499
H     -1.068867   -1.495861    0.630102
H     -1.165471   -0.414550    1.921544
