50

C     -0.267927   -2.355394    2.381294
C      0.723348   -1.467193    1.611549
C      0.609384   -1.510666    0.046441
C      1.790610   -0.684320   -0.552325
C      1.699194    0.769957   -0.161726
C      0.481739    1.339814   -0.149517
C     -0.770236    0.625450   -0.630075
C     -0.780698   -0.919675   -0.444726
N     -1.312633   -1.509192   -1.717614
C     -1.769900   -0.383495   -2.554763
C     -0.996676    0.843253   -2.120396
C     -0.370772   -2.358289   -2.481401
C      0.306413   -3.346085   -1.590214
C      0.775412   -2.947542   -0.410617
C     -1.812654    1.361044    0.178676
C     -3.183021    1.102744    0.300447
C     -3.959587    1.953377    1.103656
C     -3.364853    3.042517    1.768729
C     -1.989459    3.288192    1.634746
C     -1.239619    2.436961    0.823432
N      0.158856    2.504880    0.617615
C      2.923089    1.497587    0.246891
O      2.991449    2.751173    0.119567
O      4.022752    0.783759    0.733912
C      5.233675    1.415399    1.131047
H     -0.301894   -3.387193    1.977402
H     -1.288679   -1.923370    2.374862
H      0.051854   -2.416839    3.442970
H      1.749422   -1.780344    1.907550
H      0.590457   -0.427808    1.980221
H      2.753270   -1.123154   -0.211009
H      1.806056   -0.733763   -1.657725
H     -1.528036   -1.151291    0.341433
H     -2.147141   -2.104221   -1.491653
H     -1.636877   -0.563662   -3.646489
H     -2.856201   -0.204910   -2.391002
H     -0.025914    0.863808   -2.664404
H     -1.553816    1.778964   -2.350140
H      0.396943   -1.745955   -2.999638
H     -0.921698   -2.917607   -3.270408
H      0.404856   -4.383214   -1.896176
H      1.287127   -3.670683    0.218867
H     -3.639739    0.261140   -0.201503
H     -5.020151    1.768694    1.214505
H     -3.969636    3.690164    2.390008
H     -1.522574    4.116674    2.151311
H      0.808023    3.093418    1.184247
H      5.680520    1.956172    0.270042
H      5.949220    0.643633    1.481489
H      5.036727    2.127095    1.960611
