28

C     -3.177366    0.122864    0.984767
C     -2.464413   -0.659953   -0.124427
C     -1.385755    0.179383   -0.765031
O     -1.468677    0.451234   -1.993750
N     -0.271008    0.657874    0.004905
C      0.880421    1.323340   -0.617715
C      1.851947    0.280090   -1.219015
C      2.272489   -0.848146   -0.258706
C      3.150586   -0.357717    0.850073
O      2.709444   -0.294221    2.027717
O      4.452699    0.044117    0.580326
C      1.568744    2.258948    0.346522
O      1.051829    2.535911    1.461748
O      2.754928    2.882164   -0.022347
N     -1.907650   -1.915041    0.393754
H     -2.482023    0.359253    1.817687
H     -3.589340    1.071560    0.578811
H     -4.019829   -0.477684    1.388740
H     -3.225746   -0.907398   -0.899366
H     -0.211507    0.390553    1.013301
H      0.517551    1.965295   -1.450077
H      1.346690   -0.193533   -2.088802
H      2.755803    0.785922   -1.624026
H      2.841828   -1.607506   -0.836219
H      1.378952   -1.363223    0.154824
H     -1.409676   -2.424955   -0.372206
H     -1.238869   -1.734316    1.177176
H     -2.682055   -2.524816    0.743928
