20

C      1.721049   -1.082560   -0.465151
C      0.855727   -0.143527    0.397218
C      1.446783    1.274550    0.330457
C     -0.642878   -0.195444   -0.039834
C     -1.159088   -1.608075    0.120138
O     -1.510949   -2.272767   -0.890022
O     -1.245115   -2.182679    1.382815
N     -1.473956    0.742351    0.762915
O     -2.802978    0.418902    0.710602
O     -1.328302    2.029858    0.325686
H      2.784977   -1.029812   -0.149310
H      1.652457   -0.800447   -1.537780
H      1.398891   -2.138338   -0.349124
H      0.932839   -0.484975    1.453886
H      1.010769    1.916425    1.123505
H      1.262553    1.730635   -0.665911
H      2.542823    1.250730    0.511520
H     -0.707615    0.075747   -1.119196
H     -3.080590    0.420578   -0.244558
H     -1.657396    2.078849   -0.611116
