21

C     -0.057757    0.593563    0.617760
C     -0.396834   -0.405076   -0.501654
C     -1.732528   -0.084207   -1.193168
N     -2.881254   -0.328387   -0.318428
C      1.305554    0.303725    1.260276
C      2.440286    0.606300    0.325120
O      2.808681    1.799062    0.154641
N      3.086272   -0.443205   -0.395628
H     -0.826946    0.525206    1.415757
H     -0.070342    1.632105    0.219383
H     -0.424702   -1.438380   -0.091997
H      0.399725   -0.370321   -1.275479
H     -1.822485   -0.729052   -2.095457
H     -1.738579    0.973893   -1.537319
H     -2.834619   -1.291743    0.085978
H     -2.912809    0.380708    0.448342
H     -3.759079   -0.243143   -0.880054
H      1.352463   -0.756030    1.592644
H      1.415787    0.937033    2.167116
H      3.868475   -0.226846   -1.052497
H      2.780693   -1.435204   -0.282683
