15

C      0.123737   -0.077550    0.630555
C     -0.809670    0.051685   -0.578210
N     -1.929895   -0.882918   -0.475748
C      1.267761    0.883888    0.516534
O      1.192544    2.015570    1.065205
N      2.424715    0.542555   -0.246666
H     -0.442139    0.129074    1.565166
H      0.519971   -1.114200    0.691326
H     -0.241296   -0.157401   -1.512200
H     -1.202616    1.091595   -0.635445
H     -2.546388   -0.770891   -1.312792
H     -2.488461   -0.681266    0.385313
H     -1.575442   -1.866563   -0.445747
H      2.491971   -0.382318   -0.726631
H      3.215208    1.218739   -0.336614
