45

C     -4.171882    1.101070   -0.347211
C     -2.647696    1.269739   -0.517654
C     -2.020086    0.060264   -1.231825
C     -2.222030   -1.244089   -0.419328
C     -3.504209   -1.238507    0.439332
C     -4.613215   -0.380137   -0.199956
C     -5.977512   -0.522575    0.519188
N     -5.896708   -0.335734    1.971780
C     -0.559740    0.300010   -1.495651
O     -0.131331    0.286399   -2.681875
O      0.297245    0.586480   -0.423636
C      1.698271    0.543264   -0.470521
C      2.419776    1.364413    0.403428
C      3.817444    1.349624    0.400820
C      4.514681    0.508556   -0.479748
C      3.794007   -0.341085   -1.333228
C      2.396012   -0.325423   -1.329832
C      6.019248    0.466104   -0.458841
C      6.514072   -0.578008    0.544886
C      8.009167   -0.616727    0.566702
O      8.634776   -1.377983   -0.217324
O      8.714107    0.224471    1.418221
H     -4.684357    1.533111   -1.234919
H     -4.488099    1.707065    0.526820
H     -2.447424    2.199758   -1.094287
H     -2.180125    1.388413    0.485516
H     -2.537601   -0.056523   -2.211739
H     -2.262403   -2.099115   -1.129459
H     -1.358411   -1.426036    0.258417
H     -3.255679   -0.831212    1.444132
H     -3.858423   -2.284140    0.572911
H     -4.769441   -0.775208   -1.230020
H     -6.389190   -1.535218    0.310032
H     -6.694656    0.212492    0.090168
H     -6.866499   -0.291071    2.359858
H     -5.403094    0.551346    2.214804
H     -5.408636   -1.146918    2.414942
H      1.893625    2.020292    1.085419
H      4.355964    1.991223    1.087190
H      4.315225   -1.022701   -1.994205
H      1.867063   -1.014906   -1.973326
H      6.402233    0.221600   -1.474492
H      6.419652    1.467656   -0.186165
H      6.122642   -1.582421    0.270624
H      6.143239   -0.327613    1.562590
