21

C      0.639576   -1.285188   -0.548163
C      1.978277   -1.026361   -0.857592
C      2.504729    0.257489   -0.689045
C      1.685351    1.286300   -0.207511
C      0.346387    1.031351    0.103048
C     -0.192433   -0.258407   -0.066936
C     -1.641236   -0.550776    0.274541
C     -2.563543    0.299305   -0.560511
O     -2.916837    1.444285   -0.171073
O     -2.988212   -0.160516   -1.800734
N     -1.890580   -0.365727    1.710237
O      3.840344    0.500117   -1.001713
H      0.254385   -2.287980   -0.684699
H      2.607770   -1.825376   -1.228296
H      2.084806    2.283488   -0.073164
H     -0.268662    1.841169    0.473619
H     -1.870846   -1.612049    0.026280
H     -1.265803   -1.000735    2.258805
H     -1.711769    0.622281    2.002992
H     -2.883266   -0.612243    1.930290
H      4.251562    1.419573   -0.890375
