33

C      1.092255    0.893423   -0.386081
C      2.095914    1.839878   -0.606214
C      3.441661    1.464823   -0.578581
C      3.786372    0.127667   -0.324648
C      2.778184   -0.821822   -0.104648
C      1.421096   -0.452984   -0.142809
C      0.353660   -1.500871    0.132774
C     -0.129013   -1.488986    1.601322
C     -1.114678   -0.372594    1.831564
O     -1.129275    0.238831    2.934344
C     -2.103058   -0.061772    0.775451
C     -3.242863    0.736062    1.008875
C     -4.154382    0.970987   -0.026318
C     -3.947185    0.416034   -1.292209
C     -2.815128   -0.373013   -1.529121
C     -1.889804   -0.603039   -0.506692
O     -0.745276   -1.366343   -0.778059
O     -4.870147    0.656397   -2.307578
O     -3.488039    1.290974    2.260370
O      0.968598   -1.381114    2.473616
O      5.126981   -0.253085   -0.289323
O      4.420330    2.432610   -0.802570
H      0.064712    1.223185   -0.407654
H      1.826423    2.871122   -0.796456
H      3.055210   -1.848797    0.100129
H      0.797840   -2.502888   -0.056904
H     -0.662751   -2.450484    1.787356
H     -5.029832    1.581853    0.155767
H     -2.645731   -0.797555   -2.510661
H     -4.748635    0.269429   -3.236229
H      0.675565   -1.737617    3.352923
H      5.402345   -1.211189   -0.107401
H      5.408652    2.210878   -0.792221
