31

C     -2.247594    0.371379   -0.565636
C     -3.595744    0.332281   -0.934499
C     -4.551619   -0.208038   -0.064869
C     -4.148333   -0.704496    1.181113
C     -2.801256   -0.665636    1.552924
C     -1.833668   -0.136683    0.679627
C     -0.409131   -0.095624    1.088836
O     -0.118908   -0.100630    2.316826
N      0.644851   -0.066801    0.111073
C      2.044120    0.165885    0.485844
C      2.979548   -0.177841   -0.691162
C      4.460365   -0.133901   -0.290049
C      5.326750   -0.524259   -1.445390
O      5.640433   -1.730690   -1.623128
O      5.747519    0.437632   -2.354977
C      2.219131    1.597289    0.912424
O      1.842930    2.536833    0.162299
O      2.815647    1.890169    2.132291
N     -5.929935   -0.247131   -0.443987
H     -1.539542    0.822558   -1.247755
H     -3.896115    0.729579   -1.895998
H     -4.877464   -1.121666    1.864364
H     -2.514632   -1.059851    2.520112
H      0.414269   -0.265121   -0.888610
H      2.299524   -0.504734    1.336545
H      2.739070   -1.205022   -1.045711
H      2.797955    0.524823   -1.535154
H      4.738659    0.891614    0.034230
H      4.643601   -0.828003    0.559134
H     -6.650087   -0.646244    0.198644
H     -6.240342    0.122328   -1.370286
