37

C     -4.578814    1.279414    0.409575
N     -4.119960    0.322700    1.424066
C     -3.231121   -0.722232    0.863593
C     -1.902480   -0.170351    0.282276
C     -1.077455    0.670945    1.268858
C      0.244873    1.028272    0.665557
N      0.452264    2.154887   -0.051275
C      1.732330    2.052414   -0.462105
C      2.264304    0.871572    0.006676
N      1.322892    0.221611    0.707874
C      3.632172    0.331793   -0.286831
C      3.687858   -0.363703   -1.661952
C      5.111721   -0.730151   -1.984231
O      5.725518   -0.132565   -2.907149
O      5.766045   -1.712982   -1.250819
N      2.837955   -1.562032   -1.693755
C     -2.950595   -1.793183    1.889127
O     -2.823370   -1.502097    3.108457
O     -2.783969   -3.110902    1.481226
H     -5.006338    0.751868   -0.470800
H     -5.371362    1.928970    0.840847
H     -3.747778    1.939474    0.083259
H     -4.970816   -0.141268    1.821678
H     -3.651781    0.842102    2.201645
H     -3.765470   -1.227167    0.026418
H     -1.286722   -1.032373   -0.060147
H     -2.116406    0.434919   -0.624745
H     -0.900197    0.105566    2.207560
H     -1.614303    1.609640    1.519439
H      2.235822    2.783413   -1.080573
H      1.400704   -0.714993    1.163870
H      4.353918    1.177804   -0.267942
H      3.927939   -0.378808    0.515987
H      3.325586    0.351489   -2.436563
H      2.958768   -2.059425   -2.606565
H      1.831874   -1.290629   -1.608051
H      3.086389   -2.213994   -0.913770
