38

C     -4.741956    1.161151   -1.225717
C     -5.523555    0.815373   -0.101422
C     -4.929809    0.691880    1.168424
C     -3.558842    0.928335    1.274626
C     -2.800573    1.266744    0.182729
C     -3.360197    1.391542   -1.089896
C     -1.496014    1.382294    0.623907
C     -1.529937    1.089737    1.985272
N     -2.794978    0.814327    2.377154
C     -0.268691    1.613946   -0.203297
C      0.332977    0.300594   -0.593411
O     -0.091511   -0.290130   -1.622734
N      1.338003   -0.303237    0.238830
C      1.946882   -1.613923   -0.012137
C      2.763965   -1.624843   -1.325147
C      3.875407   -0.559666   -1.360423
C      4.933602   -0.812853   -0.325437
O      5.790876   -1.715011   -0.518557
N      4.956916   -0.061093    0.888671
C      0.895111   -2.692740    0.015539
O      0.453234   -3.105428    1.119999
O      0.370870   -3.215363   -1.165330
H     -5.207254    1.245250   -2.198287
H     -6.584706    0.637842   -0.217572
H     -5.517611    0.421041    2.033848
H     -2.754629    1.637814   -1.950791
H     -0.670555    1.045881    2.643754
H     -3.108246    0.535303    3.334349
H      0.463603    2.209400    0.381412
H     -0.521680    2.197734   -1.113508
H      1.637679    0.208241    1.100481
H      2.651828   -1.835117    0.820938
H      3.220695   -2.631131   -1.463312
H      2.094487   -1.454201   -2.193966
H      4.352482   -0.573323   -2.364223
H      3.439565    0.452771   -1.227433
H      5.695808   -0.239113    1.606205
H      4.246752    0.679971    1.068845
