30

C     -2.527311   -1.191543   -0.899711
C     -3.914914   -1.105955   -1.043490
C     -4.621875   -0.064288   -0.436517
C     -3.940029    0.901684    0.312961
C     -2.547578    0.816684    0.457142
C     -1.832256   -0.239184   -0.132617
C     -0.359778   -0.293371    0.013842
C      0.318935   -1.506678    0.264099
C      1.714589   -1.512075    0.374790
C      2.429408   -0.314931    0.258317
C      3.834856   -0.208530    0.358588
C      4.437660    1.051137    0.239928
C      3.680228    2.209962    0.022790
O      4.259873    3.323776   -0.077721
C      2.288442    2.143126   -0.084215
C      1.637267    0.916484    0.025188
O      0.317846    0.848659   -0.080249
O      4.667427   -1.310267    0.572289
O     -0.391910   -2.695638    0.430443
O     -4.650115    1.941927    0.909701
O     -6.001923    0.011562   -0.584194
H     -1.997804   -1.986876   -1.408262
H     -4.440412   -1.845200   -1.634666
H     -2.025926    1.567369    1.038781
H      2.208414   -2.452726    0.563717
H      5.515704    1.128902    0.318089
H      1.712659    3.045336   -0.253676
H      4.337190   -2.260506    0.661181
H      0.075594   -3.574735    0.618733
H     -4.184259    2.655892    1.457536
