23

C     -0.268448   -1.188346    0.720935
C     -1.557643   -0.970708    1.209858
C     -2.430953   -0.093894    0.556168
C     -1.996899    0.576422   -0.612498
C     -0.701617    0.351077   -1.095319
C      0.170011   -0.529034   -0.435755
C      1.570629   -0.750821   -0.956191
C      2.612783    0.212973   -0.350778
C      2.741012    0.053542    1.142620
O      3.494961   -0.837107    1.615860
O      1.993833    0.844646    2.007665
O      2.355360    1.549107   -0.708409
O     -2.809993    1.466073   -1.317629
O     -3.706696    0.080008    1.096505
H      0.389415   -1.869750    1.246159
H     -1.881375   -1.486787    2.104983
H     -0.372285    0.869302   -1.987973
H      1.578730   -0.637204   -2.062463
H      1.881181   -1.799118   -0.750486
H      3.595806   -0.054845   -0.796063
H      1.507890    1.829181   -0.275677
H     -3.756541    1.697161   -1.052607
H     -4.409159    0.688121    0.701093
