12

C     -0.054868   -0.133843   -0.352043
C     -0.937767   -1.028006    0.474190
O     -0.995054   -0.892979    1.725576
O     -1.678921   -2.029478   -0.140480
C      1.390871   -0.464697   -0.102900
O      1.931375   -0.185075    1.000344
O      2.133893   -1.107121   -1.085390
N     -0.326835    1.280451   -0.068952
H     -0.274986   -0.324722   -1.426570
H     -1.328677    1.495495   -0.280406
H      0.273953    1.883178   -0.677573
H     -0.132985    1.506798    0.934204
