23

C      2.799692    0.497256    0.454608
C      1.607085    0.724073   -0.226782
N      0.661964   -0.258789   -0.321938
C      0.889065   -1.478413    0.267224
O      0.024836   -2.395491    0.200666
N      2.053047   -1.710734    0.935569
C      3.007079   -0.748504    1.038218
O      4.077080   -0.982086    1.661116
C     -0.592544    0.029719   -1.039734
C     -1.569902    0.836360   -0.159232
C     -2.771409    1.238071   -0.972068
O     -2.954931    2.446285   -1.275790
O     -3.673986    0.276616   -1.411164
N     -1.989923    0.068178    1.019496
H      3.546687    1.278198    0.526979
H      1.440291    1.694499   -0.679823
H      2.214880   -2.643994    1.379143
H     -0.361273    0.613501   -1.959509
H     -1.078803   -0.907075   -1.390940
H     -1.053691    1.761519    0.185068
H     -2.705082    0.608723    1.559053
H     -1.171627   -0.095407    1.649173
H     -2.398537   -0.852505    0.736402
