44

C      1.946216    1.414473   -0.595391
C      2.963321    1.512752    0.515274
C      2.709834    1.054622    1.762122
C      1.401692    0.440799    2.212322
C      1.257554   -0.990477    1.736895
C      2.112386   -1.990942    2.233098
C      1.984711   -3.311916    1.795326
C      0.999722   -3.667607    0.868877
C      0.131198   -2.680177    0.363443
C      0.269654   -1.343939    0.796061
O     -0.579779   -0.361375    0.273040
C     -1.270723   -0.554604   -0.959757
C     -1.953442   -1.933459   -0.975808
C     -0.949648   -2.992437   -0.608598
O     -1.066699   -4.145448   -1.098515
C     -2.230987    0.592292   -1.183803
C     -1.903633    1.595604   -2.122498
C     -2.756721    2.683725   -2.321385
C     -3.940104    2.793685   -1.575486
C     -4.258429    1.819808   -0.616305
C     -3.400736    0.735033   -0.408341
O     -4.786050    3.877552   -1.792146
O      0.882566   -4.998652    0.462849
O      3.093900   -1.680513    3.167219
C      4.318565    2.105583    0.227879
H      2.289863    1.936527   -1.513959
H      1.785605    0.348516   -0.854181
H      0.989552    1.885608   -0.280601
H      3.488681    1.143703    2.515073
H      0.550600    1.083511    1.898507
H      1.379494    0.437893    3.325746
H      2.651881   -4.069352    2.185076
H     -0.512249   -0.559380   -1.775797
H     -2.776025   -1.984681   -0.232385
H     -2.376522   -2.132175   -1.986811
H     -0.980804    1.541659   -2.698170
H     -2.493802    3.444087   -3.062615
H     -5.164438    1.907559   -0.036817
H     -3.648339    0.018754    0.352890
H     -5.654885    3.987894   -1.278649
H      1.496120   -5.721983    0.817411
H      4.395810    2.461660   -0.815172
H      5.096492    1.339547    0.378331
H      4.508600    2.956268    0.905753
