23

C      3.883656   -0.371184   -0.335591
N      2.440645   -0.434087   -0.529267
C      1.540273   -0.641192    0.566243
O      1.983881   -0.753817    1.741387
C      0.060706   -0.677694    0.327575
C     -0.509618    0.749265    0.298848
C     -2.017629    0.823827   -0.034044
C     -2.301031    0.337633   -1.433357
O     -2.619489   -0.862015   -1.649798
O     -2.160932    1.209789   -2.505540
N     -2.839550    0.119492    0.960517
H      4.388224   -0.204430   -1.310600
H      4.247243   -1.326352    0.098376
H      4.135670    0.467413    0.347161
H      2.056274   -0.320509   -1.494394
H     -0.418889   -1.266445    1.138001
H     -0.133872   -1.192901   -0.636479
H      0.047701    1.350589   -0.454005
H     -0.338129    1.226233    1.289116
H     -2.298330    1.901041   -0.003097
H     -2.613520    0.468409    1.920271
H     -3.851175    0.310117    0.774037
H     -2.682108   -0.913182    0.924635
