19

C      2.289429   -0.946666    0.620891
C      0.994592   -1.413641    0.396413
C     -0.045803   -0.523833    0.056177
C      0.251036    0.863376   -0.054154
C      1.569897    1.317262    0.177241
C      2.575565    0.410389    0.512037
O      1.897387    2.665597    0.078541
C     -0.838326    1.805857   -0.411787
O     -0.628825    3.044154   -0.522427
C     -2.185737    1.277513   -0.640022
O     -3.133228    2.049862   -0.945091
C     -2.426809   -0.162984   -0.510737
C     -1.446140   -1.016112   -0.188195
O     -1.792364   -2.367064   -0.093239
H      3.076574   -1.642847    0.881212
H      0.833734   -2.474372    0.495242
H      3.584733    0.760726    0.688713
H     -3.428078   -0.540502   -0.682241
H     -1.147638   -3.106713    0.141426
