46

C      7.563237   -1.212157    1.176804
C      7.598797   -1.410329   -0.189349
O      6.698704   -0.650710   -0.770571
C      6.077137    0.041634    0.155602
C      6.577280   -0.275780    1.402426
C      4.956783    0.993885   -0.122131
N      3.673117    0.294449   -0.108340
C      2.444441    0.982341   -0.378817
C      1.226829    0.310592   -0.406904
C      0.086318    0.986512   -0.672812
N      0.066470    2.319142   -0.917846
C      1.255564    2.992858   -0.890888
N      2.426038    2.328338   -0.625284
N     -0.953422    0.142135   -0.658446
C     -0.384615   -1.059938   -0.372254
N      0.965850   -0.995080   -0.210883
C     -2.367751    0.464553   -0.888804
C     -2.952096    1.331967    0.266006
C     -4.484654    1.172676    0.335499
C     -4.907410   -0.321654    0.409362
C     -3.767948   -1.256312   -0.065317
O     -3.115832   -0.710133   -1.198002
C     -4.320622   -2.641644   -0.429369
O     -3.280218   -3.499882   -0.812820
O     -5.248903   -0.659924    1.730131
O     -5.098016    1.820971   -0.753502
O     -2.377855    0.957690    1.494610
H      8.180309   -1.698189    1.920601
H      8.259231   -2.086338   -0.715479
H      6.258306    0.119167    2.358166
H      5.115859    1.457125   -1.119536
H      4.951459    1.798303    0.644836
H      3.642892   -0.731015    0.097432
H      1.273961    4.056954   -1.081689
H     -0.937378   -1.984862   -0.288717
H     -2.410861    1.094807   -1.804196
H     -2.705891    2.401100    0.061571
H     -4.839276    1.695707    1.251139
H     -5.796630   -0.475713   -0.248623
H     -3.040208   -1.404468    0.765655
H     -5.029618   -2.548772   -1.279883
H     -4.877851   -3.075920    0.432503
H     -2.833960   -3.796927    0.023042
H     -6.155676   -0.291158    1.896577
H     -4.867604    1.321951   -1.579810
H     -2.544288    1.702047    2.130251
