16

C      1.199403    1.188833    0.901636
C      0.457291   -0.056083    0.405419
C     -0.929088    0.324968   -0.155158
N     -1.723939   -0.859272   -0.487912
C      1.287504   -0.764565   -0.630377
O      1.701502   -1.934374   -0.416338
O      1.605140   -0.134232   -1.828004
H      2.192823    0.904596    1.310668
H      1.345927    1.917032    0.074764
H      0.620974    1.681138    1.712377
H      0.311913   -0.730141    1.279378
H     -0.815043    0.962934   -1.060339
H     -1.479761    0.921085    0.606772
H     -1.824297   -1.474661    0.351779
H     -1.275174   -1.392371   -1.267296
H     -2.675175   -0.554889   -0.797368
