20

C     -1.146961   -0.998881    0.352064
C     -0.698338    0.373868   -0.187905
C     -1.743151    1.425622    0.087863
O     -2.102254    1.677711    1.269046
O     -2.314794    2.129158   -0.965090
N      0.580853    0.766718    0.425364
C      1.757845    0.324413    0.060073
N      1.919823   -0.618365   -1.010481
N      2.926298    0.790488    0.742795
C     -2.344322   -1.515182   -0.386138
O     -2.202888   -2.093378   -1.495704
O     -3.618798   -1.320534    0.131074
H     -1.381701   -0.925809    1.436403
H     -0.324148   -1.737598    0.249063
H     -0.581712    0.325047   -1.292693
H      0.544608    1.442428    1.223562
H      2.878653   -0.928158   -1.283294
H      1.121728   -1.042534   -1.529123
H      3.872553    0.447775    0.465224
H      2.856704    1.477212    1.526548
