47

C      1.372434    1.288234    0.252377
C      0.353327    0.527396   -0.424004
C      1.080966   -0.719060   -0.029997
O      0.897150   -1.951568   -0.206945
N      2.104428    0.105484    0.653940
C      3.333349   -0.135829    1.403007
C      4.322670   -0.893556    0.545197
C      5.389464   -0.207661   -0.062106
C      6.288803   -0.885933   -0.890144
C      6.129421   -2.253412   -1.132331
C      5.062319   -2.942875   -0.543029
C      4.161273   -2.268015    0.285462
O      7.032420   -2.915445   -1.960937
C      3.049477   -0.852946    2.694425
O      2.032396   -1.585952    2.818666
O      3.945241   -0.744339    3.750678
N     -0.955608    0.627780    0.225094
C     -1.780654    1.793675    0.065695
O     -1.379171    2.746972   -0.656447
C     -3.149139    1.895817    0.704102
C     -4.218203    1.334617   -0.215809
C     -4.190362   -0.010912   -0.629864
C     -5.184053   -0.513527   -1.475026
C     -6.219783    0.318568   -1.917188
C     -6.256576    1.654794   -1.509591
C     -5.264711    2.161100   -0.664237
O     -7.214759   -0.171240   -2.760264
N     -3.198818    1.258951    2.027481
H      1.977426    1.910336   -0.443355
H      1.015607    1.853319    1.142634
H      0.312337    0.672899   -1.525713
H      3.762982    0.852973    1.676658
H      5.525288    0.854010    0.102017
H      7.108080   -0.346972   -1.348448
H      4.927137   -4.000662   -0.730686
H      3.339573   -2.819418    0.723208
H      6.943133   -3.905562   -2.157161
H     -1.315121   -0.193064    0.760001
H     -3.341763    2.982904    0.858225
H     -3.402562   -0.674549   -0.301474
H     -5.147727   -1.549812   -1.785597
H     -7.055359    2.302255   -1.848376
H     -5.315416    3.199428   -0.361318
H     -7.219192   -1.136723   -3.068813
H     -2.401044    1.593766    2.615931
H     -3.166163    0.216919    1.959510
H     -4.090519    1.526834    2.504346
