21

C     -1.277196    0.294451    1.351965
C     -1.016632    0.007910   -0.136190
C     -1.571507   -1.374126   -0.510543
C      0.473836    0.144210   -0.558010
C      0.975117    1.571297   -0.411534
O      1.484583    1.975709    0.667068
O      0.823478    2.474175   -1.460693
N      1.336994   -0.868706    0.093860
O      1.598620   -0.538620    1.386819
O      2.521429   -0.970381   -0.577951
H     -0.845889   -0.497986    1.997487
H     -2.371756    0.326361    1.539664
H     -0.859942    1.278674    1.647244
H     -1.597498    0.757940   -0.719313
H     -2.658078   -1.424762   -0.284136
H     -1.439052   -1.561676   -1.597415
H     -1.052514   -2.175185    0.058038
H      0.495641   -0.072090   -1.650562
H      0.389515    2.200459   -2.334055
H      1.537897   -1.394990    1.881776
H      3.052954   -0.152664   -0.383519
