44

C     -5.333674   -0.876708    1.705761
C     -4.855116    0.512899    1.266486
C     -3.698196    0.939189    2.156969
C     -2.426314    0.835738    1.760736
C     -2.107817    0.420534    0.388922
C     -0.799173    0.233812   -0.055424
C     -0.532954   -0.115232   -1.359233
C     -1.542399   -0.281338   -2.304685
C     -2.875963   -0.092763   -1.883132
C     -3.153772    0.250078   -0.538228
O     -4.473165    0.448045   -0.117265
O     -3.926621   -0.244081   -2.785400
C      0.834279   -0.213435   -1.452740
C      1.306208    0.099807   -0.200609
O      0.316421    0.361098    0.632424
C      2.737849    0.121580    0.084514
C      3.607109   -0.246258   -0.959113
C      4.987535   -0.265795   -0.733233
C      5.507784    0.089493    0.528330
C      4.627766    0.457637    1.555294
C      3.246866    0.472683    1.338885
O      6.883905    0.088719    0.800737
C      7.890234   -0.262063   -0.143548
O      3.099324   -0.614387   -2.224043
C      1.724588   -0.467054   -2.630292
C     -5.998564    1.524647    1.400968
H     -4.510319   -1.615996    1.601891
H     -5.667037   -0.863088    2.766245
H     -6.181549   -1.211070    1.070130
H     -3.901568    1.235899    3.179314
H     -1.629272    1.077368    2.453193
H     -1.308227   -0.545210   -3.328151
H     -3.760444   -0.489600   -3.754357
H      5.642461   -0.556345   -1.543337
H      5.017891    0.730790    2.527590
H      2.580873    0.754563    2.144959
H      8.885572   -0.174864    0.338166
H      7.748874   -1.310773   -0.480384
H      7.854560    0.427326   -1.013440
H      1.645840    0.391441   -3.329306
H      1.397430   -1.387958   -3.156035
H     -6.851768    1.230536    0.752581
H     -5.654183    2.533075    1.085553
H     -6.355272    1.583085    2.452307
