17

C     -1.772442    0.412908   -1.140870
C     -0.581219    0.751834   -0.295433
C      0.520849   -0.007164   -0.306622
C      1.707642    0.311301    0.515864
O      1.705361    1.328843    1.260966
C      2.904352   -0.552069    0.477275
O      2.926529   -1.573280   -0.259641
O      4.024636   -0.255135    1.250706
C     -2.472413   -0.797961   -0.603078
O     -2.311349   -1.916290   -1.158833
O     -3.275843   -0.705264    0.529578
H     -2.480788    1.268459   -1.132688
H     -1.456815    0.245932   -2.194044
H     -0.629385    1.640825    0.322224
H      0.545077   -0.886550   -0.939573
H      4.054959    0.554365    1.858654
H     -3.409152    0.179244    1.005112
