48

C      0.719557   -1.874654    2.981933
O      0.394092   -1.640051    1.615435
C      1.250364   -1.032185    0.683885
C      2.555435   -0.625835    1.018565
C      3.387842   -0.024386    0.055602
C      2.888966    0.189104   -1.238697
C      1.585199   -0.210358   -1.583731
C      0.774610   -0.819143   -0.617317
O     -0.521365   -1.214139   -0.954465
C     -1.622348   -0.317496   -0.845027
C     -2.866691   -0.977200   -1.468455
C     -4.093526   -0.059604   -1.295559
C     -4.223200    0.379500    0.171661
C     -2.867314    0.937102    0.674667
O     -1.851599   -0.040050    0.524807
C     -2.943328    1.322044    2.156384
O     -1.691962    1.779632    2.590736
O     -5.221769    1.364778    0.260867
O     -5.261676   -0.738289   -1.680105
O     -2.649167   -1.273843   -2.825409
O      1.058614   -0.018215   -2.870979
C      1.760416    0.595015   -3.947803
C      4.765151    0.434477    0.367362
C      5.499195   -0.045672    1.382513
C      6.866175    0.429316    1.654633
O      7.399095    1.325809    0.947181
O      7.580609   -0.119721    2.711494
H      0.933746   -0.912006    3.493781
H     -0.145181   -2.356957    3.482524
H      1.596184   -2.552547    3.055255
H      2.907140   -0.755283    2.030603
H      3.524838    0.661368   -1.976115
H     -1.370483    0.617739   -1.400079
H     -3.059372   -1.933440   -0.933613
H     -3.963015    0.855100   -1.923221
H     -4.500029   -0.515313    0.781761
H     -2.608693    1.862154    0.106038
H     -3.243725    0.434651    2.758468
H     -3.696305    2.128751    2.298014
H     -1.798191    2.004850    3.550976
H     -5.644910    1.272113    1.154383
H     -5.286392   -0.729079   -2.672593
H     -2.446780   -0.419893   -3.290727
H      2.035263    1.637416   -3.680174
H      1.103040    0.619538   -4.840698
H      2.671497    0.009005   -4.193286
H      5.206270    1.173265   -0.296477
H      5.113724   -0.827370    2.025003
