40

C      0.744906    3.373125    0.091286
C      0.473617    1.913922   -0.311327
C     -1.020623    1.719759   -0.680724
C     -1.849986    1.263571    0.520735
C     -1.372330   -0.109688    1.072498
C      0.150343   -0.391125    0.801731
C      0.964160    0.931184    0.807556
C      2.497434    0.654546    0.687357
C      2.858088   -0.730328    0.099882
C      1.786130   -1.264282   -0.824912
C      0.495328   -1.141153   -0.469102
C      2.148523   -1.930907   -2.123056
C     -2.381984   -1.286736    0.831660
C     -3.044118   -1.336978   -0.564922
C     -1.800725   -2.618946    1.239071
O     -1.387506   -3.440321    0.377355
O     -1.681132   -2.930647    2.587672
H      1.817846    3.518386    0.335939
H      0.491956    4.056059   -0.747588
H      0.137278    3.655217    0.977296
H      1.053117    1.719774   -1.242231
H     -1.453395    2.658266   -1.091337
H     -1.107759    0.960075   -1.486821
H     -2.925592    1.255535    0.254834
H     -1.751806    2.035120    1.316864
H     -1.408546    0.028286    2.179301
H      0.517763   -1.016968    1.647478
H      0.788851    1.411337    1.797977
H      2.955599    0.727250    1.698144
H      2.992449    1.439139    0.075256
H      2.973940   -1.453993    0.935961
H      3.838750   -0.668358   -0.418927
H     -0.264072   -1.526572   -1.128386
H      1.752762   -2.968469   -2.135373
H      3.249145   -1.974470   -2.259602
H      1.709475   -1.362997   -2.970354
H     -3.230425   -1.115234    1.532723
H     -3.536147   -2.319931   -0.727575
H     -3.845849   -0.574000   -0.642014
H     -2.335466   -1.158450   -1.391014
