24

C      0.239658    0.718151   -0.671383
C      1.730928    0.726648   -1.042447
C      2.638043    0.400576    0.151107
C      4.076628    0.554617   -0.229639
O      4.705248   -0.412090   -0.735469
O      4.710281    1.780698   -0.071950
C     -0.298743   -0.696747   -0.412726
C     -1.791277   -0.662007   -0.177289
C     -2.243376   -0.464307    1.080067
C     -3.652083   -0.536767    1.514242
O     -4.508248   -1.191648    0.863176
O     -4.022531    0.059673    2.712215
C     -2.681292   -0.718584   -1.362003
O     -3.735331   -0.030849   -1.411983
O     -2.316914   -1.474648   -2.469423
H      0.070004    1.357947    0.222542
H     -0.326366    1.166774   -1.517428
H      1.984454    1.742962   -1.417559
H      1.918231    0.006569   -1.869424
H      2.466957   -0.641919    0.493138
H      2.413153    1.086258    0.996480
H      0.209558   -1.144430    0.468300
H     -0.066114   -1.349522   -1.281409
H     -1.520867   -0.277355    1.866325
