39

C     -3.509320   -0.602113   -1.028647
C     -2.580449   -0.202807    0.126411
C     -3.029754    1.154950    0.697578
C     -4.458614    1.033969    1.261480
C     -5.396337    0.368364    0.287627
C     -4.980605   -0.448711   -0.701196
C     -5.967485   -1.120610   -1.579075
O     -7.204196   -1.026755   -1.355170
O     -5.536014   -1.868914   -2.668093
O     -4.457145    0.287377    2.451788
O     -2.159703    1.578869    1.716268
O     -1.243379   -0.123596   -0.372819
C     -0.103999   -0.323919    0.414929
O     -0.212719   -0.644207    1.631141
C      1.221561   -0.157521   -0.203101
C      2.359734   -0.351505    0.478475
C      3.711592   -0.202465   -0.115198
C      4.797229   -0.830799    0.518015
C      6.095092   -0.711579    0.000613
C      6.319424    0.049112   -1.152588
C      5.246224    0.691951   -1.781607
C      3.952240    0.573072   -1.266908
O      7.610445    0.164892   -1.664785
O      7.165871   -1.345904    0.628137
H     -3.294357   -1.658265   -1.301053
H     -3.285451    0.029708   -1.916027
H     -2.645847   -0.989485    0.912572
H     -3.045899    1.910083   -0.126069
H     -4.850261    2.059867    1.456914
H     -6.456029    0.488409    0.479223
H     -4.225928    0.912401    3.187802
H     -1.428032    2.089804    1.281147
H      1.243480    0.107169   -1.250820
H      2.303430   -0.675546    1.511490
H      4.635605   -1.422455    1.411314
H      5.415045    1.291400   -2.667246
H      3.154979    1.109460   -1.761899
H      7.803556    0.709608   -2.497194
H      7.036016   -1.903307    1.464397
