15

C     -1.453826   -0.492623    1.031695
C     -0.265216   -0.468159    0.117648
C      0.617004    0.537957    0.149753
C      1.789441    0.623318   -0.745944
O      2.243510    1.765467   -1.021231
C      2.477053   -0.558323   -1.301393
O      2.264922   -1.710668   -0.840543
O      3.411449   -0.395869   -2.316788
C     -2.465895    0.523169    0.605816
O     -2.509982    1.648963    1.168064
O     -3.334110    0.242373   -0.441621
H     -1.921613   -1.499387    0.992545
H     -1.133840   -0.308685    2.080685
H     -0.154423   -1.280391   -0.588415
H      0.435527    1.372859    0.816988
