47

C      4.412375    0.454568    3.565506
C      3.992241   -0.647270    2.621883
C      3.331283   -0.381700    1.475482
C      2.958632    1.015359    1.041812
C      2.265079    0.995133   -0.304304
C      0.857936    1.077738   -0.372678
C      0.196266    1.054255   -1.618181
C      0.946653    0.962673   -2.806256
C      2.346191    0.865883   -2.732444
C      3.005128    0.861311   -1.501882
O      4.394879    0.714109   -1.509035
O      0.272054    0.948747   -4.039631
C      0.906957    0.854663   -5.310774
C     -1.281818    1.140711   -1.686741
O     -1.815343    1.943185   -2.501262
C     -2.126677    0.276128   -0.835037
C     -3.463210    0.379207   -0.815224
C     -4.341733   -0.479640    0.016365
C     -5.692297   -0.613657   -0.347843
C     -6.558965   -1.404809    0.411988
C     -6.090134   -2.064562    1.554512
C     -4.752684   -1.924971    1.934744
C     -3.882115   -1.135272    1.177024
O     -6.944255   -2.855919    2.319216
O      0.115494    1.205437    0.799480
C      4.313127   -2.080802    2.956725
H      5.102813    1.153588    3.048717
H      4.938411    0.050345    4.455162
H      3.519773    1.011371    3.920056
H      3.051685   -1.213207    0.831145
H      3.862535    1.657376    0.987457
H      2.308211    1.473876    1.815883
H      2.940282    0.775470   -3.631683
H      4.954420    0.635367   -0.670459
H      1.590006    1.717166   -5.461436
H      0.132336    0.872824   -6.104447
H      1.470394   -0.099216   -5.386641
H     -1.630187   -0.480616   -0.243670
H     -3.944452    1.100231   -1.466087
H     -6.075544   -0.111714   -1.228135
H     -7.594611   -1.503051    0.112312
H     -4.388410   -2.423613    2.824064
H     -2.862902   -1.025020    1.520170
H     -7.919219   -2.976075    2.070389
H      4.949335   -2.518952    2.158691
H      3.373184   -2.667319    3.034555
H      4.856876   -2.165846    3.920512
