42

C     -4.409773   -0.769232   -0.191162
C     -4.218703    0.298268   -1.299598
C     -2.740675    0.703615   -1.453606
C     -2.164954    1.300303   -0.136731
C     -2.875873    0.779121    1.134790
C     -3.382488   -0.670283    0.985162
C     -4.028938   -1.094239    2.290493
O     -5.064457   -0.509711    2.708396
O     -3.468439   -2.107861    3.059818
O     -2.266570   -1.493767    0.726409
O     -0.763823    1.035733   -0.031084
C      0.204781    1.653734   -0.832458
O     -0.126382    2.534512   -1.671569
C      1.622721    1.285287   -0.702316
C      2.029678    0.329923    0.144554
C      3.445404   -0.086352    0.299215
C      4.524563    0.748684   -0.054194
C      5.845705    0.319142    0.119730
C      6.103558   -0.952068    0.658187
C      5.034969   -1.779268    1.025144
C      3.717688   -1.347733    0.852486
O      7.417113   -1.386056    0.829935
O      6.887982    1.171341   -0.244233
O     -1.982661   -0.410466   -1.857509
O     -4.982830    1.442904   -1.012511
H     -4.343701   -1.776709   -0.657155
H     -5.453106   -0.690655    0.186259
H     -4.562081   -0.130476   -2.270915
H     -2.671322    1.490687   -2.241391
H     -2.312513    2.404290   -0.153749
H     -2.181749    0.851715    2.002051
H     -3.738065    1.445824    1.362088
H     -2.585092   -2.430018    0.631998
H      2.329886    1.795779   -1.341519
H      1.287945   -0.207562    0.724494
H      4.357155    1.743692   -0.442593
H      5.224206   -2.758711    1.445851
H      2.907664   -2.005617    1.143783
H      7.628273   -2.298289    1.217429
H      7.860421    0.908832   -0.136964
H     -2.179408   -0.561719   -2.818915
H     -5.926108    1.223403   -1.231674
