43

C     -6.199467    0.974356    1.158276
C     -5.561390    1.027033   -0.084115
C     -4.386118    0.300768   -0.299911
C     -3.843936   -0.489754    0.727732
C     -4.486539   -0.530264    1.976570
C     -5.661828    0.197326    2.187964
C     -2.557726   -1.247301    0.511303
C     -1.342004   -0.477685    1.061930
C     -1.127078    0.800195    0.298425
O     -0.657387    0.771251   -0.871335
O     -1.477825    2.016714    0.875011
N     -0.136669   -1.307781    0.981968
C      1.074286   -0.959476    1.667958
O      1.094440    0.010704    2.473307
C      2.335070   -1.718292    1.393508
C      2.853775   -1.365471    0.033220
C      2.664996   -2.089608   -1.140217
N      3.194851   -1.426941   -2.193754
C      3.703799   -0.285734   -1.697427
C      3.510013   -0.209808   -0.342455
C      3.924642    0.896202    0.398530
C      4.564658    1.943690   -0.288355
C      4.770294    1.868402   -1.685145
C      4.332516    0.737169   -2.405769
O      5.405453    2.920252   -2.340895
H     -7.108402    1.538116    1.324060
H     -5.976062    1.633016   -0.879394
H     -3.897246    0.357690   -1.264663
H     -4.075275   -1.122191    2.784969
H     -6.154034    0.161308    3.151336
H     -2.629052   -2.230591    1.026488
H     -2.413714   -1.463253   -0.570899
H     -1.537187   -0.238073    2.131262
H     -1.352686    2.885859    0.370149
H     -0.128631   -2.146383    0.357027
H      2.129676   -2.808689    1.449544
H      3.104346   -1.478002    2.158827
H      2.153545   -3.040050   -1.219951
H      3.190215   -1.734325   -3.191710
H      3.760961    0.951638    1.466858
H      4.899674    2.814955    0.259749
H      4.474796    0.664266   -3.476468
H      5.568251    2.898763   -3.340849
