41

C      3.580404   -2.404623    0.227404
C      4.394773   -1.131607    0.211489
C      3.883608    0.050923    0.619595
C      2.460874    0.250567    1.078677
C      1.542388    0.553107   -0.110961
C      0.105691    0.707986    0.342581
C     -0.596886   -0.407572    0.655664
C     -2.033543   -0.436087    1.124783
C     -3.008799   -0.147233    0.005926
C     -3.166139   -1.020772   -1.099759
C     -4.062720   -0.690613   -2.122741
C     -4.822493    0.477889   -2.051953
C     -4.698023    1.330099   -0.953671
C     -3.798845    1.015575    0.072769
O     -5.470394    2.487935   -0.891354
O     -2.462134   -2.221617   -1.209910
C     -0.493908    2.095173    0.410772
O     -0.840653    2.403395    1.731440
C      5.826454   -1.171850   -0.256666
H      2.673814   -2.293815   -0.401021
H      3.282171   -2.649503    1.268075
H      4.161355   -3.263572   -0.168338
H      4.519666    0.932564    0.601456
H      2.437557    1.117752    1.774120
H      2.100982   -0.632017    1.648345
H      1.897730    1.480296   -0.610534
H      1.602909   -0.256742   -0.869430
H     -0.091753   -1.368373    0.594127
H     -2.258362   -1.444665    1.533427
H     -2.165579    0.263509    1.976552
H     -4.179160   -1.351422   -2.972814
H     -5.515773    0.717007   -2.848393
H     -3.707333    1.688385    0.917601
H     -5.409316    3.123345   -0.104616
H     -1.846465   -2.573796   -0.489932
H      0.233049    2.853889    0.046845
H     -1.381168    2.153263   -0.252554
H     -1.279302    3.293129    1.700954
H      6.125645   -2.190444   -0.581290
H      5.960134   -0.481052   -1.116025
H      6.499543   -0.858416    0.569357
