39

C      6.221092    1.592616    0.102974
C      4.780446    1.667704   -0.394241
C      4.033842    0.355360   -0.128912
C      2.587117    0.434110   -0.630755
C      1.835190   -0.874915   -0.349039
C      0.433550   -0.909916   -0.984124
C     -0.536597    0.181999   -0.488075
C     -0.790222    0.167856    1.030256
C     -1.320364   -1.155779    1.517411
C     -2.578598   -1.585581    1.349413
C     -3.640697   -0.802443    0.686599
C     -4.862488   -1.315253    0.516603
C     -5.952848   -0.536280   -0.156799
C     -6.425841    0.577235    0.723060
O     -7.272419    0.353505    1.627966
O     -5.899228    1.853992    0.573621
H      6.242201    1.404723    1.197661
H      6.735685    2.554975   -0.102033
H      6.767879    0.779095   -0.419797
H      4.264364    2.504582    0.125053
H      4.787395    1.881171   -1.485448
H      4.559104   -0.477047   -0.647366
H      4.032854    0.146925    0.963940
H      2.587684    0.632894   -1.725123
H      2.075903    1.275148   -0.115247
H      2.417103   -1.721714   -0.774654
H      1.766696   -1.048004    0.745766
H      0.538018   -0.811750   -2.086686
H     -0.015640   -1.908938   -0.795902
H     -1.500892    0.052037   -1.022783
H     -0.154782    1.182763   -0.780354
H      0.156571    0.394794    1.563204
H     -1.492766    0.983598    1.303250
H     -0.631007   -1.799907    2.050064
H     -2.829301   -2.565652    1.739054
H     -3.443634    0.202345    0.336802
H     -5.081950   -2.321875    0.853968
H     -5.587993   -0.129422   -1.124717
H     -6.805426   -1.214947   -0.374430
