50

C      6.669199   -1.148327   -1.952886
C      6.182667   -0.326790   -0.786027
C      4.945952   -0.570834   -0.298984
C      4.340511    0.195321    0.851346
N      2.952337   -0.208483    1.063369
C      1.899425    0.175284    0.166672
C      0.577619   -0.193239    0.396972
C     -0.394126    0.173490   -0.470097
N     -0.120979    0.856319   -1.609200
C      1.169956    1.235961   -1.844043
N      2.163422    0.900091   -0.962163
N     -1.575480   -0.345446   -0.088300
C     -1.234758   -1.091272    1.003101
N      0.079259   -1.003642    1.342932
C     -2.833094   -0.366983   -0.866169
C     -3.507139    1.026078   -1.065610
C     -4.367575    1.447275    0.135835
C     -5.318735    0.306825    0.494018
C     -4.480320   -0.957217    0.763758
O     -3.745182   -1.352494   -0.390043
C     -5.368020   -2.142700    1.172378
O     -5.917417   -1.935607    2.444825
O     -6.050162    0.657409    1.642591
O     -5.116141    2.590514   -0.186644
O     -2.583202    2.026045   -1.409719
C      7.080821    0.739376   -0.192416
O      7.478121    0.351452    1.094256
H      5.950915   -1.072195   -2.796893
H      6.757905   -2.213512   -1.647124
H      7.660571   -0.802515   -2.314131
H      4.344771   -1.352473   -0.763121
H      4.924243   -0.013319    1.772032
H      4.374846    1.287116    0.653345
H      2.721214   -0.759265    1.920270
H      1.410657    1.796613   -2.735754
H     -1.903405   -1.767702    1.513650
H     -2.550492   -0.700658   -1.888122
H     -4.197585    0.919282   -1.931668
H     -3.713659    1.655497    1.015379
H     -6.009909    0.105948   -0.360681
H     -3.803363   -0.742373    1.615494
H     -6.175549   -2.286065    0.419147
H     -4.750239   -3.067005    1.198923
H     -6.594936   -2.652444    2.573299
H     -6.853164    1.152177    1.335031
H     -4.511713    3.369576   -0.084024
H     -2.130984    2.324262   -0.578786
H      7.989364    0.882757   -0.811033
H      6.540674    1.713532   -0.177375
H      7.592880    1.184358    1.622390
