47

C     -2.794374   -1.265859    3.119136
C     -1.286224   -1.446587    2.898040
C     -0.905032   -1.262959    1.410884
C     -1.200190    0.131163    0.918369
O     -0.828379    1.127222    1.598077
N     -1.841663    0.325086   -0.350515
C     -2.134678    1.661572   -0.876580
C     -2.413810    1.593614   -2.383259
O     -2.585305    2.885587   -2.898211
C     -3.313517    2.250962   -0.148273
O     -4.344911    1.555395    0.050859
O     -3.292043    3.575169    0.280425
N      0.520420   -1.537924    1.212626
C      1.047647   -1.954837   -0.056155
O      0.262746   -2.333013   -0.969253
C      2.544363   -1.959369   -0.284345
C      3.173381   -0.545080   -0.212326
C      2.956328    0.380829   -1.439071
C      3.850783    1.622284   -1.310391
C      1.493638    0.821118   -1.593124
N      2.923012   -2.647356   -1.523898
O     -0.911660   -2.736489    3.309479
H     -3.366743   -1.995876    2.507818
H     -3.040424   -1.429108    4.189724
H     -3.111217   -0.236909    2.847349
H     -0.741507   -0.688156    3.508976
H     -1.502468   -1.996529    0.824747
H     -2.109494   -0.516809   -0.909898
H     -1.242361    2.309070   -0.728178
H     -1.550283    1.106880   -2.890417
H     -3.326831    0.985204   -2.575243
H     -2.756830    2.774133   -3.869282
H     -2.485953    4.167368    0.120857
H      1.192041   -1.284277    1.972713
H      2.981276   -2.536637    0.561313
H      2.826138   -0.026800    0.708237
H      4.268960   -0.693169   -0.085135
H      3.268452   -0.145147   -2.366194
H      3.737040    2.275284   -2.202164
H      3.583729    2.205256   -0.402492
H      4.918848    1.323709   -1.243868
H      0.861674   -0.026187   -1.921067
H      1.105215    1.228237   -0.635998
H      1.403034    1.606398   -2.373785
H      2.376222   -2.264528   -2.328866
H      2.666811   -3.657838   -1.434373
H     -0.875860   -2.724098    4.301818
