38

C     -2.046477   -2.212843    0.543834
C     -0.583825   -2.351279    0.955021
N      0.253623   -1.483968    0.121066
C     -0.010027   -0.043370    0.359389
C     -1.507757    0.268495    0.465651
C     -1.947840    1.600610    0.603461
C     -3.307755    1.903257    0.718963
C     -4.254701    0.869911    0.730515
C     -3.829090   -0.460534    0.656185
C     -2.464160   -0.770092    0.560575
O     -5.613209    1.167171    0.828731
O     -3.697426    3.238133    0.825982
C      0.659840    0.801720   -0.758038
C      2.144299    0.549306   -0.846691
C      2.668312   -0.281227   -1.851380
C      4.042259   -0.532815   -1.912376
C      4.905434    0.039312   -0.968072
C      4.387057    0.862343    0.036871
C      3.013492    1.115205    0.100354
O      6.275974   -0.204546   -1.018820
H     -2.189958   -2.620280   -0.480250
H     -2.672974   -2.803638    1.247349
H     -0.271152   -3.411049    0.824902
H     -0.461321   -2.089712    2.030806
H      0.096276   -1.724742   -0.886812
H      1.253198   -1.692931    0.352089
H      0.448803    0.245138    1.332731
H     -1.239688    2.416623    0.637091
H     -4.562658   -1.257159    0.690869
H     -6.316800    0.438014    0.843002
H     -4.669173    3.510126    0.914250
H      0.520726    1.886033   -0.573579
H      0.171375    0.581090   -1.732942
H      2.013710   -0.737259   -2.583661
H      4.434362   -1.173987   -2.691529
H      5.049010    1.304439    0.770613
H      2.626033    1.749888    0.887798
H      6.682208   -0.796534   -1.733948
