40

C     -2.513363    4.079067    0.342120
C     -1.418991    3.539142   -0.564073
O     -1.061243    2.226420   -0.146956
C     -0.088297    1.463277   -0.801965
O      0.548054    1.953489   -1.776302
C      0.232428    0.069438   -0.279174
C      1.027897   -0.765170   -1.335163
C      2.545635   -0.537976   -1.227088
N      3.093036   -0.938428    0.100527
C      2.099014   -0.878561    1.204381
C      1.103061    0.274480    1.004394
C      3.697780   -2.281240    0.038983
C     -1.100090   -0.664856   -0.021192
C     -1.355161   -1.416942    1.150418
C     -2.564650   -2.099272    1.313918
C     -3.532885   -2.065822    0.311304
C     -3.291125   -1.358071   -0.864734
C     -2.085305   -0.673890   -1.036029
H     -2.151810    4.117959    1.391530
H     -2.796595    5.103034    0.019329
H     -3.407809    3.422779    0.288504
H     -0.531502    4.206079   -0.507232
H     -1.790034    3.511815   -1.611645
H      0.686303   -0.532381   -2.367744
H      0.843555   -1.852895   -1.185659
H      3.049639   -1.080072   -2.059241
H      2.754531    0.540695   -1.404474
H      3.865945   -0.270153    0.335792
H      2.624871   -0.732165    2.174649
H      1.535455   -1.834813    1.282529
H      1.711651    1.204109    0.919002
H      0.477687    0.424405    1.909435
H      4.100396   -2.573665    1.034127
H      2.949773   -3.039704   -0.282076
H      4.547693   -2.291790   -0.678584
H     -0.635586   -1.495239    1.949641
H     -2.748250   -2.662240    2.220107
H     -4.466621   -2.597467    0.441616
H     -4.036543   -1.344248   -1.649416
H     -1.918548   -0.149127   -1.968466
