31

C      1.797556    1.664676    0.091697
C      1.816676    0.155164   -0.014111
C      3.005439   -0.590428    0.236090
C      2.955486   -1.996385    0.165872
C      1.784255   -2.652942   -0.202214
C      0.638810   -1.924863   -0.503579
C      0.637847   -0.526755   -0.407353
N     -0.541813    0.205945   -0.778037
C     -1.833193   -0.036275   -0.183994
C     -2.965719    0.758244   -0.504588
C     -4.210832    0.396904    0.035411
C     -4.317836   -0.686679    0.904783
C     -3.176668   -1.412438    1.231379
N     -1.980906   -1.078988    0.682841
C     -2.896291    1.971131   -1.348167
O     -1.919173    2.760867   -1.264936
O     -3.955736    2.293309   -2.188197
C      4.310535    0.084448    0.619995
F      5.376855   -0.797557    0.569168
F      4.214933    0.575528    1.909142
F      4.586613    1.124536   -0.249499
H      0.785220    2.041502    0.346857
H      2.113087    2.108651   -0.875341
H      2.464064    2.027533    0.898686
H      3.827521   -2.598351    0.386113
H      1.769629   -3.733222   -0.270334
H     -0.248440   -2.451856   -0.830945
H     -0.421364    0.937861   -1.509999
H     -5.099118    0.974057   -0.191457
H     -5.275988   -0.953121    1.331973
H     -3.241454   -2.250133    1.912744
