38

C     -4.368755    2.150928   -2.209969
C     -3.954415    0.754796   -1.892775
O     -4.649517   -0.212485   -2.306877
O     -2.771289    0.533248   -1.180359
C     -2.297363   -0.770709   -0.831515
C     -3.076804   -1.307412    0.357799
C     -2.313571   -0.774157    1.565388
N     -0.955664   -0.423129    1.138675
C     -0.866699   -0.704966   -0.297128
C      0.001012    0.349136   -1.008246
C      1.443038    0.239608   -0.585143
C      1.932944    1.015702    0.476657
C      3.262400    0.888945    0.890233
C      4.120867   -0.025364    0.250039
C      3.625508   -0.805197   -0.801454
C      2.296370   -0.679048   -1.214965
O      5.461899   -0.189590    0.627474
C      6.095649    0.534023    1.677308
O     -3.048892   -2.711572    0.364052
H     -5.474378    2.241209   -2.159942
H     -3.918183    2.854932   -1.479305
H     -4.024289    2.415777   -3.231084
H     -2.352972   -1.445680   -1.715718
H     -4.130892   -0.944337    0.372526
H     -2.811561    0.145859    1.940494
H     -2.297113   -1.517852    2.394401
H     -0.269987   -1.032015    1.645317
H     -0.405132   -1.710084   -0.451770
H     -0.070238    0.204327   -2.108855
H     -0.379247    1.370892   -0.786901
H      1.284209    1.717225    0.986632
H      3.611060    1.502960    1.709268
H      4.273969   -1.515536   -1.298549
H      1.931265   -1.298958   -2.024564
H      5.586109    0.330729    2.642851
H      6.076802    1.622201    1.456512
H      7.152227    0.206003    1.757288
H     -3.718366   -3.010411   -0.305487
