23

C      4.383144    2.714424    0.281549
O      3.357025    2.185780   -0.549997
C      2.286462    1.441910   -0.045705
O      2.198796    1.213260    1.192143
N      1.294580    0.945513   -0.953843
C      0.153524    0.172221   -0.555928
N     -0.110324   -0.174423    0.733259
C     -1.252118   -0.876452    0.619546
C     -1.986223   -1.480782    1.637562
C     -3.160892   -2.168834    1.276726
C     -3.565994   -2.233799   -0.076872
C     -2.799809   -1.611298   -1.080634
C     -1.644855   -0.940556   -0.684747
N     -0.764018   -0.280037   -1.445427
H      5.115041    3.262665   -0.346371
H      3.947456    3.417180    1.023070
H      4.907885    1.889772    0.808938
H      1.411865    1.161584   -1.969075
H     -1.665953   -1.424111    2.669822
H     -3.757260   -2.650888    2.040347
H     -4.470405   -2.765197   -0.342945
H     -3.097781   -1.652922   -2.120240
H     -0.780146   -0.145009   -2.480930
