45

C      6.749203    1.259159   -1.831509
C      5.321453    1.140043   -1.408389
O      4.440871    0.881213   -2.272562
N      4.954661    1.413178   -0.047218
C      3.651658    1.155687    0.504146
C      3.154914    1.994310    1.512025
C      1.904814    1.749109    2.083606
C      1.140819    0.659738    1.660469
C      1.622146   -0.196009    0.653744
C      2.888527    0.045485    0.097641
N      0.867360   -1.343482    0.225312
C     -0.570737   -1.383329    0.219414
N     -1.265788   -0.225687    0.052774
C     -2.623461   -0.195799   -0.009056
N     -3.320105   -1.359135    0.083999
C     -2.689694   -2.549922    0.247289
C     -3.441957   -3.725854    0.346302
C     -2.802117   -4.952882    0.534762
C     -1.409882   -5.009697    0.632204
C     -0.647373   -3.841545    0.533525
C     -1.279093   -2.599034    0.326435
C     -3.334999    1.094698   -0.178996
C     -4.739223    1.132106   -0.284762
C     -5.406057    2.350977   -0.443016
C     -4.683029    3.544259   -0.496868
C     -3.290882    3.521811   -0.392394
C     -2.617984    2.306390   -0.234270
H      6.992779    2.326461   -2.013399
H      7.413901    0.862707   -1.035576
H      6.925744    0.680525   -2.762983
H      5.653852    1.906531    0.553312
H      3.737253    2.841634    1.851814
H      1.530678    2.400443    2.862958
H      0.188200    0.472586    2.138349
H      3.279856   -0.643520   -0.639177
H      1.387853   -2.121313   -0.238342
H     -4.522566   -3.690038    0.281986
H     -3.386573   -5.860498    0.613139
H     -0.919823   -5.961864    0.789995
H      0.425492   -3.923153    0.636323
H     -5.324039    0.221801   -0.246461
H     -6.485270    2.369868   -0.523914
H     -5.201590    4.486392   -0.619198
H     -2.731596    4.447620   -0.433423
H     -1.538197    2.318033   -0.153579
