26

C      3.288628   -1.918990    0.283253
C      2.174315   -1.075669   -0.235283
O      2.320591   -0.448256   -1.319508
O      0.947209   -1.068551    0.438251
C     -0.098647   -0.174852    0.165921
C     -1.402977   -0.686486    0.068936
C     -2.471916    0.184971   -0.209343
C     -2.240719    1.549420   -0.379811
C     -0.950203    2.064114   -0.259064
C      0.132295    1.211756    0.029977
O      1.432588    1.708268    0.216092
C      1.798691    3.079904    0.107131
O     -1.593174   -2.066195    0.245941
C     -2.854619   -2.722524    0.171679
H      3.191420   -2.039130    1.382553
H      3.250843   -2.918338   -0.197761
H      4.265606   -1.440473    0.060243
H     -3.484924   -0.182749   -0.298255
H     -3.067849    2.213369   -0.596342
H     -0.807234    3.129188   -0.378905
H      2.886737    3.180243    0.297874
H      1.248848    3.683073    0.860104
H      1.581553    3.452823   -0.916064
H     -3.540316   -2.320936    0.947405
H     -2.709892   -3.807221    0.352842
H     -3.296856   -2.586760   -0.837865
