27

C     -3.466739   -0.582827   -1.848537
C     -2.926456    0.400649   -1.051030
N     -3.907457    0.944910   -0.315160
C     -5.025761    0.296061   -0.689933
N     -4.794918   -0.648743   -1.627375
C     -1.476008    0.754308   -0.931563
C     -0.809999   -0.074503    0.169136
N      0.606582    0.266827    0.293462
C      1.449262   -0.379423    1.256119
O      0.982629   -1.276411    2.009824
C      2.903219   -0.025507    1.341653
C      3.705239   -0.793864    0.284074
N      5.126703   -0.461919    0.350824
H     -2.929589   -1.219091   -2.539430
H     -3.823676    1.699388    0.401811
H     -6.004754    0.502139   -0.277912
H     -0.968007    0.565559   -1.902322
H     -1.382309    1.836058   -0.693870
H     -0.904674   -1.155776   -0.073676
H     -1.318671    0.120767    1.138758
H      1.026230    0.993106   -0.331146
H      3.286092   -0.272279    2.356017
H      3.024030    1.068327    1.186174
H      3.324141   -0.546001   -0.730886
H      3.581902   -1.887910    0.440992
H      5.240071    0.568185    0.208163
H      5.482918   -0.692031    1.307099
