40

C      3.639850   -2.225938   -1.909654
C      2.426691   -1.996533   -2.557430
C      1.428241   -1.244541   -1.933858
C      1.637882   -0.705689   -0.646610
C      2.877913   -0.915232   -0.009890
C      3.863296   -1.696701   -0.638249
C      3.097419   -0.401526    1.359624
C      4.169015    0.298975    1.760703
C      5.223294    0.830034    0.875716
O      6.308821    1.221108    1.378244
O      5.021273    0.971857   -0.491997
O      0.662526    0.056172    0.025271
C     -0.695343    0.257271   -0.375048
C     -1.551647   -0.951809    0.059857
C     -3.027518   -0.695781   -0.295790
C     -3.473201    0.673846    0.247616
C     -2.462542    1.772296   -0.174523
O     -1.161298    1.428143    0.272243
C     -2.826241    3.135392    0.437485
O     -4.024865    3.630696   -0.096302
O     -4.776224    0.972135   -0.190356
O     -3.839537   -1.697575    0.261280
O     -1.103306   -2.114529   -0.586647
H      4.406060   -2.820038   -2.390768
H      2.255956   -2.408802   -3.543635
H      0.501422   -1.097242   -2.466956
H      4.802779   -1.901279   -0.139501
H      2.334482   -0.621360    2.096906
H      4.247104    0.535940    2.815046
H     -0.739336    0.404475   -1.477207
H     -1.452379   -1.064523    1.166530
H     -3.134368   -0.689761   -1.407749
H     -3.488878    0.619127    1.359229
H     -2.468859    1.890853   -1.283877
H     -2.935955    3.038019    1.538819
H     -2.002520    3.861873    0.250185
H     -3.817459    3.950860   -1.012907
H     -4.750775    1.050897   -1.180007
H     -3.818439   -2.468550   -0.363811
H     -1.353334   -2.882560   -0.009562
