23

C      3.103642   -0.166420   -0.861295
C      2.227013   -0.366661    0.374772
C      0.762131   -0.668853    0.023265
C      0.019508    0.563639   -0.517116
C     -1.449507    0.258305   -0.838838
N     -2.209465   -0.057769    0.378383
C     -2.626809    1.006553    1.286456
N     -2.511773   -1.385148    0.731002
O     -2.160680   -2.348696    0.018951
H      3.013165   -1.035087   -1.547571
H      2.821139    0.761776   -1.399248
H      4.165072   -0.073470   -0.548726
H      2.633212   -1.225535    0.951965
H      2.287558    0.532957    1.025141
H      0.258389   -1.015345    0.951085
H      0.714926   -1.497095   -0.717435
H      0.073763    1.391353    0.222965
H      0.505842    0.910036   -1.453097
H     -1.511448   -0.573853   -1.572344
H     -1.901820    1.145709   -1.332778
H     -2.323750    2.004339    0.903230
H     -2.158852    0.850330    2.280921
H     -3.731254    0.988934    1.396089
