31

C     -3.643670   -1.076979    1.400171
C     -3.291313   -0.224882    0.174053
C     -1.802596   -0.251932   -0.105817
C     -0.879457    0.272348    0.833038
C      0.478252    0.220041    0.526516
C      0.926460   -0.326176   -0.657104
C      0.054081   -0.851943   -1.604536
C     -1.322325   -0.812020   -1.320655
C      2.298010   -0.216227   -0.633466
C      2.611499    0.391891    0.564937
N      1.502772    0.665202    1.287061
C      3.933048    0.659071    0.917669
C      4.945036    0.289184    0.012206
C      4.620106   -0.334043   -1.215401
C      3.277352   -0.593758   -1.549757
Cl     5.897252   -0.786516   -2.328751
C     -3.778581    1.191946    0.317077
O     -3.683233    1.798974    1.418445
O     -4.295677    1.853917   -0.792236
H     -3.160268   -0.683181    2.319402
H     -4.744116   -1.084530    1.553447
H     -3.307388   -2.124134    1.242477
H     -3.837116   -0.671396   -0.686781
H     -1.208448    0.706050    1.768433
H      0.419270   -1.278285   -2.529834
H     -2.014661   -1.217694   -2.047528
H      1.449336    1.120112    2.225865
H      4.175148    1.136198    1.858486
H      5.979902    0.485316    0.261653
H      3.014526   -1.069957   -2.485631
H     -4.613197    2.813403   -0.723440
