32

C     -2.504104    1.086239   -1.066081
N     -2.115421    0.165249    0.031760
C     -3.011887   -1.021421   -0.013778
C     -2.363163    0.849556    1.329224
C     -0.673554   -0.279641   -0.065555
C      0.367106    0.881045   -0.009661
C      1.778376    0.358808    0.125779
C      2.243420   -0.101909    1.369509
C      3.541209   -0.607131    1.494087
C      4.382404   -0.659647    0.379474
C      3.926855   -0.207804   -0.861956
C      2.629796    0.298416   -0.991173
C     -0.405658   -1.149301   -1.282798
O     -0.242550   -0.637569   -2.422476
O     -0.346639   -2.530657   -1.143592
H     -1.908327    2.022947   -1.046657
H     -2.385682    0.610369   -2.061779
H     -3.573121    1.383944   -0.973567
H     -4.076751   -0.735961    0.143499
H     -2.967676   -1.531658   -1.000792
H     -2.737462   -1.759543    0.772965
H     -1.969423    0.252934    2.182065
H     -1.905218    1.860485    1.361009
H     -3.451177    1.010360    1.503912
H     -0.457318   -0.924916    0.818010
H      0.292678    1.517231   -0.917187
H      0.184230    1.542090    0.859351
H      1.599775   -0.070789    2.240052
H      3.894150   -0.959682    2.454604
H      5.386436   -1.051792    0.477364
H      4.578509   -0.251282   -1.725045
H      2.290186    0.641031   -1.960568
