39

C      2.877715   -1.346411   -0.983859
C      3.445881   -0.046926   -0.465286
C      2.781832    0.726919    0.419824
C      1.452436    0.386241    1.043433
C      0.291537    0.655276    0.071712
C     -1.114807    0.422993    0.711350
C     -1.338377   -0.995159    1.319607
C     -2.850136   -1.046725    1.576292
C     -3.292765   -0.618365    0.188089
C     -2.193142    0.276722   -0.360674
C     -2.253312   -1.187700   -0.769087
C     -1.253011   -1.926737    0.104774
C     -2.558095    1.336907   -1.396674
C     -1.438131    1.576974    1.697646
C      4.728632    0.428198   -1.040773
O      5.062368    0.066281   -2.200236
O      5.595247    1.253226   -0.324043
H      3.690600   -1.998890   -1.367052
H      2.175008   -1.144616   -1.818096
H      2.362842   -1.921349   -0.189175
H      3.205205    1.677903    0.717323
H      1.325865    1.030470    1.938935
H      1.449072   -0.662198    1.402281
H      0.361070    1.707651   -0.282473
H      0.417493    0.045026   -0.843255
H     -0.706952   -1.275023    2.188840
H     -3.193810   -0.353673    2.370483
H     -3.208959   -2.072142    1.819217
H     -4.335710   -0.520242   -0.179652
H     -2.593841   -1.477786   -1.785190
H     -1.597563   -2.960445    0.332454
H     -0.243466   -1.983206   -0.348378
H     -1.672879    1.558734   -2.027760
H     -2.875680    2.265702   -0.879418
H     -3.386082    0.989822   -2.050956
H     -2.527702    1.693375    1.870637
H     -0.941656    1.398774    2.674498
H     -1.087637    2.552064    1.297951
H      5.440906    1.488335    0.648260
