19

C     -2.873493    1.005523    0.345253
C     -2.293492   -0.374357    0.054890
C     -0.796067   -0.351071    0.148242
N     -0.052207   -0.089778   -0.960639
C      1.304189   -0.031490   -0.906268
C      1.954089   -0.239535    0.316176
N      1.210584   -0.481179    1.429354
C     -0.145794   -0.540720    1.375145
C      3.444239   -0.162009    0.411300
H     -2.486511    1.747902   -0.385294
H     -3.980133    0.968525    0.262445
H     -2.604625    1.328436    1.373809
H     -2.710275   -1.110382    0.776426
H     -2.598233   -0.691741   -0.965842
H      1.869130    0.177539   -1.805627
H     -0.710622   -0.730272    2.278803
H      3.773546    0.885899    0.250576
H      3.907478   -0.813978   -0.359137
H      3.788196   -0.497311    1.412759
