45

C      1.927003    1.115058    2.105684
C      2.200017    0.755124    0.608776
C      1.612375    1.847650   -0.310570
C      0.061270    1.842353   -0.283212
C     -0.554961    0.435402   -0.561761
C      0.088388   -0.653817    0.350240
C      1.617665   -0.594927    0.168308
C      2.497978   -1.633602    0.849735
C      3.892950   -0.981790    0.869080
C      3.706031    0.480564    0.410315
O      4.526984    1.346115    1.151597
C     -0.499065   -2.035259    0.010789
C     -1.995135   -2.049180    0.359059
C     -2.743503   -0.819156   -0.108769
C     -2.080953    0.388583   -0.466018
C     -2.866838    1.482395   -0.890328
C     -4.260544    1.410718   -0.884412
C     -4.903672    0.238821   -0.482963
C     -4.147291   -0.867536   -0.097775
O     -6.294524    0.160823   -0.467753
O     -0.309049   -2.334168   -1.349978
H      2.409284    2.083023    2.358707
H      2.333873    0.348048    2.796203
H      0.852721    1.236366    2.336988
H      1.983885    2.848454   -0.000434
H      1.948589    1.683411   -1.358450
H     -0.259776    2.556412   -1.068807
H     -0.310755    2.233877    0.686581
H     -0.308453    0.196267   -1.620616
H     -0.166443   -0.450942    1.411536
H      1.809034   -0.722259   -0.926547
H      2.510466   -2.586697    0.277188
H      2.142036   -1.833488    1.883883
H      4.313295   -1.026652    1.897943
H      4.583610   -1.514418    0.179467
H      3.972470    0.545994   -0.671983
H      4.489206    2.226761    0.695290
H      0.005150   -2.807238    0.637627
H     -2.103313   -2.115618    1.463780
H     -2.460626   -2.962327   -0.072878
H     -2.419553    2.399692   -1.239829
H     -4.840919    2.267829   -1.202001
H     -4.657366   -1.772783    0.209820
H     -6.872311    0.946873   -0.742155
H     -0.429231   -3.314755   -1.448513
