47

C      1.931925    4.757440   -1.355481
N      1.098451    3.561329   -1.141926
C      0.161325    3.204193   -2.073038
O     -0.021260    3.901022   -3.109118
C     -0.601958    2.059290   -1.892587
C     -0.395426    1.271894   -0.762183
N      0.556957    1.630772    0.158623
C      1.316098    2.760188   -0.047735
O      2.231651    3.059530    0.770900
C      0.788116    0.785878    1.350292
C      1.612724   -0.454815    1.044910
C      2.430519   -0.520048   -0.103170
C      3.185318   -1.662501   -0.376834
C      3.160110   -2.745780    0.499926
C      2.393068   -2.684478    1.663487
C      1.630709   -1.543830    1.950916
C      0.897236   -1.505095    3.193879
N      0.309353   -1.473917    4.190225
N     -1.176190    0.074242   -0.600430
C     -0.890927   -1.046171   -1.503730
C     -1.355951   -2.366247   -0.890565
C     -2.825805   -2.278874   -0.463232
C     -3.085056   -1.097040    0.494970
C     -2.546895    0.223836   -0.095845
N     -2.524283   -1.354856    1.827331
H      2.192698    5.240407   -0.389480
H      2.865208    4.471026   -1.884437
H      1.396405    5.525751   -1.952896
H     -1.346371    1.776505   -2.627752
H     -0.192868    0.497583    1.780515
H      1.295529    1.353743    2.159024
H      2.482706    0.303273   -0.802212
H      3.794172   -1.706122   -1.270736
H      3.747504   -3.629099    0.285002
H      2.401821   -3.525512    2.346825
H      0.199083   -1.110961   -1.708265
H     -1.412109   -0.881382   -2.472232
H     -1.241711   -3.177013   -1.641882
H     -0.712784   -2.624187   -0.022473
H     -3.457727   -2.154592   -1.370360
H     -3.126712   -3.233426    0.019976
H     -4.188224   -0.990129    0.604070
H     -3.205016    0.539448   -0.935110
H     -2.586841    1.023059    0.676974
H     -2.936506   -2.230887    2.222854
H     -2.759970   -0.565371    2.471547
H     -1.488095   -1.458077    1.781464
