17

C     -0.173112    0.369591   -1.208312
C      1.183442    0.708841   -1.205718
C      1.993981    0.361265   -0.120130
C      1.440912   -0.326998    0.968324
C      0.084693   -0.667505    0.968356
C     -0.730087   -0.330889   -0.125418
C     -2.194188   -0.669768   -0.113465
C     -2.956795    0.423166    0.497701
N     -3.558730    1.285829    0.980101
O      3.343722    0.705561   -0.131306
H     -0.789144    0.652986   -2.052822
H      1.604582    1.244968   -2.046710
H      2.059726   -0.595523    1.815041
H     -0.330480   -1.192261    1.819989
H     -2.563092   -0.835265   -1.148173
H     -2.372279   -1.602830    0.462536
H      3.956849    0.468832    0.640007
