21

C     -1.445295    1.165935    0.412499
C     -1.938577   -0.256080    0.139527
C     -1.005662   -0.960730   -0.849246
N      0.372058   -0.990480   -0.331425
C      0.891668    0.379254   -0.137190
C      0.015154    1.147583    0.869835
C      2.307867    0.333622    0.377257
O      3.188353    1.065428   -0.147023
O      2.653684   -0.487721    1.447686
O      1.138092   -1.604114   -1.270997
H     -2.075297    1.632200    1.200305
H     -1.539630    1.778159   -0.511490
H     -1.973592   -0.830165    1.091499
H     -2.966163   -0.217260   -0.281735
H     -1.045184   -0.446971   -1.837439
H     -1.366524   -2.002752   -0.991825
H      0.882912    0.927525   -1.109120
H      0.378473    2.194353    0.964908
H      0.074330    0.667895    1.872257
H      1.967685   -1.079631    1.900501
H      1.485648   -2.416053   -0.820969
