10

C     -0.432176   -0.355697   -0.052645
C      0.756596    0.621484    0.024602
Cl     2.193541   -0.078777   -0.768231
Cl     0.364274    2.149777   -0.808564
Cl     1.166048    0.988312    1.723017
O     -1.558860    0.203255    0.572824
O     -0.114933   -1.555847    0.604662
H     -0.664642   -0.565968   -1.127632
H     -2.039614    0.740013   -0.110138
H      0.329767   -2.146551   -0.057894
