29

C     -1.417689    0.953809    2.178787
N     -1.387731    0.399375    0.821058
C     -0.408899    0.954392   -0.136850
S     -0.812277    0.558855   -1.835556
O     -1.800952    1.560511   -2.363286
O      0.420740    0.578135   -2.695481
C     -1.537394   -1.057054   -1.858912
C     -2.666531   -1.106321   -0.841438
C     -2.192651   -0.772006    0.546532
O     -2.585865   -1.496130    1.501647
C      0.992755    0.485804    0.195425
C      1.260863   -0.865790    0.483473
C      2.565172   -1.285280    0.760435
C      3.616812   -0.364658    0.744940
C      3.363371    0.977680    0.448835
C      2.060266    1.401107    0.171518
Cl     5.252810   -0.894099    1.091182
H     -2.450837    1.275091    2.428380
H     -1.083391    0.186349    2.908685
H     -0.745958    1.834050    2.272386
H     -0.449308    2.064059   -0.066576
H     -0.766116   -1.818027   -1.616083
H     -1.936129   -1.265996   -2.874073
H     -3.108283   -2.126597   -0.853100
H     -3.465648   -0.390179   -1.130114
H      0.464935   -1.597245    0.497445
H      2.757183   -2.326810    0.984757
H      4.175335    1.693455    0.430181
H      1.885417    2.443522   -0.064043
