41

C     -4.324864    2.178586    0.471232
C     -3.691452    0.822499    0.762082
N     -2.989041    0.321250   -0.427979
C     -3.752114   -0.404612   -1.453403
C     -3.252667   -1.840424   -1.571337
C     -1.622668    0.698942   -0.702733
O     -1.278931    0.969484   -1.886305
C     -0.581731    0.756520    0.384781
C     -0.354793    2.209835    0.812378
O      0.634287    0.197920   -0.119326
C      1.744252   -0.208926    0.645293
C      1.722524   -0.209177    2.054937
C      2.839521   -0.621395    2.783437
C      3.994449   -1.042704    2.126265
C      4.042114   -1.056681    0.726290
C      5.203077   -1.482451    0.061766
C      5.248869   -1.496223   -1.333847
C      4.140262   -1.086478   -2.076498
C      2.977474   -0.659777   -1.429505
C      2.911594   -0.638869   -0.022976
H     -5.072670    2.084515   -0.344323
H     -3.546677    2.909403    0.166512
H     -4.834853    2.556092    1.382346
H     -3.006068    0.917148    1.627582
H     -4.485248    0.105861    1.065961
H     -3.658395    0.108576   -2.434741
H     -4.834426   -0.427268   -1.198689
H     -3.859197   -2.386235   -2.324353
H     -3.345880   -2.356357   -0.592173
H     -2.189597   -1.854956   -1.892133
H     -0.933369    0.148062    1.243118
H      0.415757    2.266712    1.607766
H     -0.010347    2.817272   -0.051900
H     -1.291843    2.649722    1.211626
H      0.847936    0.104812    2.605202
H      2.808708   -0.615267    3.865485
H      4.849545   -1.358780    2.712054
H      6.073604   -1.804179    0.621127
H      6.146427   -1.825484   -1.841327
H      4.181885   -1.099286   -3.158038
H      2.134547   -0.347684   -2.033588
