48

C     -3.649181   -1.753086    2.148046
C     -4.193904   -0.863350    1.030028
N     -3.584240    0.485547    1.050977
C     -4.300309    1.441088    0.174778
C     -4.505020    2.759861    0.910939
C     -2.114153    0.512301    0.839187
C     -1.637462   -0.255790   -0.413495
C     -0.157638    0.039542   -0.704475
C      0.428811   -0.855284   -1.819613
C     -0.212601   -0.554654   -3.182903
N      1.882981   -0.654944   -1.901051
C      2.780871   -0.973398   -0.820521
C      3.829376   -0.094016   -0.459329
C      4.010410    1.160279   -1.076837
C      5.058916    1.996998   -0.683260
C      5.933462    1.602477    0.332565
C      5.757398    0.370080    0.967056
C      4.710249   -0.475564    0.583576
N      4.537322   -1.661456    1.223894
C      3.531691   -2.511361    0.896803
C      2.640579   -2.185714   -0.124945
Cl     7.245190    2.660368    0.820045
H     -3.704835   -1.221218    3.121578
H     -2.598668   -2.046911    1.946953
H     -4.256948   -2.680082    2.213338
H     -4.062034   -1.353674    0.041626
H     -5.288820   -0.774649    1.207359
H     -5.304888    1.062732   -0.119603
H     -3.747620    1.639218   -0.768487
H     -5.079973    2.588214    1.845795
H     -3.526276    3.218604    1.164550
H     -5.071133    3.464848    0.266275
H     -1.771051    1.568732    0.772962
H     -1.608926    0.095522    1.736389
H     -1.754264   -1.347484   -0.246584
H     -2.250168    0.033667   -1.290194
H     -0.035955    1.110208   -0.981008
H      0.418452   -0.131985    0.231063
H      0.220101   -1.920623   -1.585952
H     -1.283169   -0.845771   -3.188723
H     -0.123905    0.525326   -3.428404
H      0.295751   -1.143064   -3.976198
H      2.287794   -0.233014   -2.767483
H      3.342787    1.512820   -1.850612
H      5.187602    2.957093   -1.166874
H      6.430960    0.072441    1.761640
H      3.427839   -3.448538    1.427206
H      1.864598   -2.892332   -0.383849
