23

C     -0.252611   -0.102214    1.793475
C     -1.302600    0.012716    0.870526
C     -1.013891   -0.051098   -0.498998
C      0.302512   -0.227290   -0.939752
C      1.352233   -0.343288   -0.017127
C      1.067095   -0.278566    1.361311
Cl     2.331092   -0.412955    2.579528
S      3.006769   -0.561279   -0.599660
O      3.563237   -1.847954   -0.058259
O      3.029902   -0.617964   -2.102037
N      3.983325    0.764420   -0.072021
S     -2.311113    0.091752   -1.654857
O     -2.394317   -1.157508   -2.485394
O     -2.082796    1.289596   -2.532586
N     -3.776958    0.295407   -0.770088
C     -3.820557    0.326327    0.525601
N     -2.648996    0.193558    1.349519
H     -0.461944   -0.053967    2.855063
H      0.502707   -0.272685   -2.002537
H      3.580947    1.628700   -0.499009
H      4.930870    0.632747   -0.491496
H     -4.780694    0.457831    1.006627
H     -2.804211    0.233713    2.382171
