18

C      2.731503    0.091565   -0.217941
C      1.715666    1.001046   -0.515199
C      0.371142    0.656326   -0.287784
C      0.085481   -0.625114    0.244980
C     -1.240549   -1.012619    0.488326
C     -2.290095   -0.120062    0.200060
C     -2.007990    1.144471   -0.325711
C     -0.689789    1.540952   -0.572111
Cl    -0.419858    3.151060   -1.235516
Cl    -3.970873   -0.552690    0.485141
O     -1.489260   -2.282818    1.014149
N      1.103172   -1.486210    0.522730
C      2.403294   -1.158604    0.305105
H      3.767008    0.354262   -0.392001
H      1.990777    1.965724   -0.920259
H     -2.821193    1.825462   -0.544809
H     -2.421902   -2.622147    1.212040
H      3.183466   -1.870603    0.538801
