19

C      2.540936   -0.770463    0.534301
C      1.182740   -0.191338    0.244445
C      1.023155    1.201795    0.176683
C     -0.230333    1.761202   -0.091455
C     -1.333817    0.931086   -0.293864
C     -1.199179   -0.464871   -0.231085
C      0.065895   -1.030691    0.039561
Cl     0.251165   -2.787285    0.121768
C     -2.404222   -1.338149   -0.452974
O     -0.390351    3.143612   -0.159028
H      2.860082   -1.418477   -0.308914
H      3.306401    0.023186    0.669176
H      2.500579   -1.373342    1.465803
H      1.872264    1.856216    0.332037
H     -2.297943    1.379743   -0.500571
H     -2.230262   -2.002807   -1.325189
H     -3.316660   -0.736952   -0.653077
H     -2.589747   -1.957690    0.449545
H      0.389299    3.775226   -0.017162
