9

C     -0.040940    0.050769    0.013678
O     -0.950158   -0.818037   -0.016871
O      1.277989   -0.316611   -0.214586
N      0.000000   -0.000000    0.000000
H     -0.286891    1.083879    0.217779
H     -0.497355   -0.696382   -0.598751
H      0.739851   -0.484199    0.555862
H      0.440121    0.728373   -0.605457
H     -0.682618    0.452208    0.648346
