28

C     -2.392469   -1.682097   -0.101692
C     -3.610572   -1.003944   -0.007660
C     -3.636714    0.375193    0.241135
C     -2.432342    1.076498    0.396246
C     -1.202149    0.405612    0.303813
N     -0.028744    1.087103    0.454617
C      1.179345    0.456831    0.369011
C      1.235770   -0.933528    0.118897
C      2.478652   -1.577333    0.031661
C      3.659529   -0.847584    0.191367
C      3.612750    0.531109    0.439597
C      2.372682    1.179839    0.527791
N      4.824720    1.272752    0.602184
C      0.043600   -1.648956   -0.038485
C     -1.185026   -0.985593    0.052624
N     -4.886503    1.063890    0.336331
H     -2.394353   -2.748342   -0.294560
H     -4.535528   -1.553697   -0.128801
H     -2.454360    2.142492    0.588506
H     -0.055968    2.116717    0.640177
H      2.536887   -2.642285   -0.159561
H      4.612488   -1.356949    0.121633
H      2.338335    2.245568    0.719716
H      4.802274    2.300387    0.787501
H      5.753729    0.799710    0.538453
H      0.071818   -2.716164   -0.230820
H     -4.918396    2.091323    0.521387
H     -5.789455    0.551448    0.222451
