38

C     -3.777002   -2.056695    0.444187
N     -3.210838   -0.698056    0.470725
C     -4.191270    0.249706   -0.088540
C     -1.938595   -0.655007   -0.283938
C     -1.027193    0.457056    0.261406
C      0.328265    0.520247   -0.480772
C      1.156938   -0.732445   -0.262392
C      1.475065   -1.564263   -1.351072
C      2.231415   -2.724152   -1.159083
C      2.678855   -3.066709    0.120171
C      2.369336   -2.247310    1.209498
C      1.613084   -1.086854    1.022067
Cl     3.627303   -4.522887    0.358165
C      1.129014    1.740997   -0.084266
C      1.994990    2.348585   -1.007575
C      2.760434    3.447185   -0.611838
C      2.667942    3.923775    0.696430
C      1.809801    3.287710    1.595193
N      1.072069    2.219214    1.191971
H     -4.740083   -2.086032    0.998543
H     -3.947113   -2.401244   -0.600599
H     -3.089816   -2.765888    0.953914
H     -4.444758   -0.003551   -1.142365
H     -3.800283    1.286975   -0.051151
H     -5.122917    0.236769    0.517299
H     -2.118149   -0.505571   -1.373327
H     -1.392126   -1.618984   -0.174974
H     -0.868185    0.294737    1.349692
H     -1.535911    1.436820    0.140546
H      0.088595    0.621820   -1.564004
H      1.136260   -1.317960   -2.349598
H      2.468372   -3.356018   -2.005581
H      2.713863   -2.508400    2.202012
H      1.385012   -0.466145    1.878703
H      2.078102    1.972971   -2.019930
H      3.427743    3.925433   -1.317100
H      3.258920    4.773671    1.012300
H      1.732862    3.640500    2.614868
