30

C     -2.744437   -1.427817   -3.197878
C     -3.086349   -2.194154   -1.920752
C     -2.378208   -1.611207   -0.690717
N     -0.937828   -1.871263   -0.722924
C     -0.037700   -1.377495    0.279340
O      1.196086   -1.604813    0.157437
N     -0.516216   -0.633466    1.409377
S      0.573661    0.047398    2.571757
O     -0.213569    0.750951    3.640757
O      1.373106   -1.060731    3.198476
C      1.638244    1.207364    1.784743
C      2.972548    1.338753    2.195467
C      3.813192    2.262644    1.566571
C      3.324371    3.061545    0.527144
C      1.991974    2.936934    0.118928
C      1.150138    2.013976    0.747094
Cl     4.379921    4.219413   -0.261470
H     -3.038033   -0.361192   -3.098025
H     -1.657611   -1.488628   -3.415253
H     -3.298980   -1.868173   -4.053115
H     -4.184774   -2.138590   -1.760066
H     -2.814486   -3.265227   -2.042352
H     -2.561840   -0.515585   -0.641591
H     -2.808853   -2.081026    0.219705
H     -0.530734   -2.437936   -1.501606
H     -1.536630   -0.470234    1.549556
H      3.362120    0.729100    3.000543
H      4.842646    2.357063    1.887963
H      1.608060    3.554223   -0.683244
H      0.120183    1.928172    0.424637
