26

C     -3.486654   -0.964524    0.580592
C     -3.032634    0.391092    0.031583
C     -4.073056    0.950695   -0.936504
O     -1.788355    0.253640   -0.655639
C     -0.557228    0.106988   -0.006490
O     -0.494856    0.117524    1.253661
N      0.624682   -0.090705   -0.793703
C      1.962422   -0.076714   -0.266315
C      2.938782   -0.901970   -0.846526
C      4.253290   -0.890917   -0.366281
C      4.604730   -0.042536    0.688076
C      3.645887    0.799744    1.256176
C      2.331544    0.790191    0.779186
Cl     5.460627   -1.938386   -1.088991
H     -2.748283   -1.348236    1.314931
H     -3.584444   -1.702673   -0.244023
H     -4.465900   -0.862684    1.095239
H     -2.921103    1.111068    0.872903
H     -5.046138    1.090979   -0.419015
H     -4.213688    0.261858   -1.797008
H     -3.734613    1.936104   -1.321221
H      0.491328   -0.347432   -1.797894
H      2.673396   -1.559954   -1.664831
H      5.620778   -0.028747    1.061456
H      3.923534    1.467874    2.061223
H      1.615955    1.477722    1.209413
