21

C     -0.335747    0.220828    0.477414
C     -0.878520   -0.209196   -0.895914
C     -2.286575    0.346738   -1.173846
N     -3.311513   -0.270925   -0.332308
C      1.084543   -0.305188    0.741000
C      2.156677    0.448978   -0.064434
N      3.501269    0.013718    0.307389
H     -0.349790    1.329415    0.564230
H     -0.994925   -0.188701    1.271724
H     -0.207604    0.172825   -1.693293
H     -0.891098   -1.318573   -0.968882
H     -2.298762    1.449264   -1.029372
H     -2.541172    0.149881   -2.237431
H     -3.200056   -1.310656   -0.352583
H     -3.190838    0.052633    0.653843
H      1.133939   -1.392431    0.512816
H      1.301207   -0.179740    1.824450
H      2.016745    0.271001   -1.151037
H      2.068927    1.541693    0.120549
H      3.646782    0.196969    1.326938
H      3.576513   -1.018533    0.155185
