15

C      1.954885    0.730906    0.122272
C      0.797806    1.528133    0.025722
C     -0.428808    0.875045   -0.047196
C     -0.526395   -0.487101   -0.027218
C      0.594389   -1.308146    0.067256
C      1.854854   -0.681805    0.143042
Cl     3.306679   -1.657982    0.263816
N     -1.818153   -0.839968   -0.110557
C     -2.452865    0.354566   -0.178451
O     -3.703448    0.467568   -0.268133
O     -1.630707    1.389763   -0.141356
H      2.925810    1.205766    0.180798
H      0.859986    2.608296    0.008850
H      0.498072   -2.386232    0.081756
H     -2.232106   -1.798811   -0.120599
