35

C      5.536598    0.006018   -0.659257
C      4.727836   -0.532790   -1.663436
C      3.338179   -0.394169   -1.593906
C      2.747125    0.289339   -0.517566
C      3.567652    0.825115    0.489960
C      4.956927    0.683995    0.416481
C      1.245999    0.416131   -0.433234
C      0.588491   -0.889658    0.061044
C      0.927531   -1.221103    1.491347
O      0.988584   -2.426794    1.852516
O      1.129176   -0.211787    2.428985
N     -0.866836   -0.844693   -0.122990
C     -1.733525    0.125163    0.495351
O     -1.292770    0.865861    1.415667
C     -3.151215    0.254682    0.081185
C     -4.100022    0.786927    0.974479
C     -5.438294    0.919281    0.591536
C     -5.842869    0.530699   -0.687184
C     -4.908891    0.013370   -1.587273
C     -3.569211   -0.122330   -1.209510
H      6.612060   -0.102687   -0.714126
H      5.177623   -1.059547   -2.495110
H      2.722256   -0.820101   -2.376348
H      3.133910    1.352422    1.330199
H      5.584273    1.099661    1.194383
H      0.969167    1.269058    0.222864
H      0.852662    0.656942   -1.445354
H      0.980199   -1.718151   -0.572129
H      1.343931   -0.433456    3.393665
H     -1.291440   -1.591880   -0.716584
H     -3.809200    1.090568    1.972568
H     -6.162145    1.323650    1.287308
H     -6.878910    0.635360   -0.982400
H     -5.221754   -0.276875   -2.582007
H     -2.863097   -0.498223   -1.937769
