28

C     -0.971041    0.425206    1.784610
C     -0.691039    0.155492    0.280826
C      0.037416    1.320066   -0.438673
C      0.525602    0.686856   -1.760071
C      0.727138   -0.804787   -1.454093
C      0.358180   -0.963036    0.034318
O      1.540218   -0.677657    0.802115
C      2.075505    0.620091    0.873920
O      3.197401    0.804864    1.413344
C      1.271139    1.798583    0.376197
C     -0.123311   -2.383659    0.362518
C     -2.064820   -0.123378   -0.394042
H     -1.568609   -0.402020    2.223183
H     -1.549521    1.366892    1.898552
H     -0.052790    0.510959    2.397406
H     -0.638692    2.181486   -0.635050
H      1.465468    1.148430   -2.134932
H     -0.247317    0.813595   -2.549266
H      0.067162   -1.417902   -2.106739
H      1.780105   -1.111025   -1.640429
H      1.914586    2.459112   -0.244307
H      0.932529    2.399787    1.246506
H     -0.423227   -2.451279    1.428972
H     -0.983160   -2.678024   -0.274709
H      0.700175   -3.107850    0.185965
H     -2.597812   -0.950545    0.121066
H     -2.708158    0.780679   -0.334250
H     -1.973125   -0.400936   -1.462938
