35

C      5.668478   -0.208658   -1.525611
C      5.801697    0.666467   -0.315843
O      6.955107    0.949277    0.104374
N      4.657717    1.212287    0.360610
C      3.321027    0.698486    0.246258
C      2.241169    1.589694    0.204665
C      0.929791    1.112880    0.118895
C      0.674138   -0.270196    0.098125
C      1.759728   -1.161734    0.153342
C      3.069793   -0.682424    0.239578
C     -0.708188   -0.797102    0.000477
O     -0.898622   -1.918268   -0.546029
N     -1.827590   -0.051403    0.512531
C     -3.183237   -0.521539    0.435892
C     -3.501083   -1.825459    0.856069
C     -4.822979   -2.275199    0.832885
C     -5.842703   -1.426650    0.401374
C     -5.543689   -0.125440   -0.007823
C     -4.218932    0.338996    0.005615
N     -3.939321    1.669451   -0.448660
H      5.711880   -1.275623   -1.225014
H      4.713625   -0.006441   -2.054035
H      6.501623   -0.004798   -2.230932
H      4.801885    2.078305    0.927903
H      2.418621    2.657852    0.219753
H      0.125570    1.831861    0.042633
H      1.593674   -2.232067    0.150923
H      3.883157   -1.390020    0.325293
H     -1.664469    0.870608    0.972892
H     -2.727811   -2.486944    1.225017
H     -5.058078   -3.280085    1.159229
H     -6.866915   -1.776408    0.386535
H     -6.345276    0.521361   -0.341956
H     -2.963418    2.024408   -0.550088
H     -4.716370    2.306019   -0.734878
