46

C     -3.343145   -1.590741   -1.622881
C     -3.216652   -0.556139   -0.480745
C     -3.332905    0.883290   -1.083955
C     -3.929632    1.882613   -0.085790
C     -5.364354    1.490262    0.318838
C     -5.617159   -0.029715    0.278825
C     -4.337865   -0.820574    0.577918
C     -1.839147   -0.736092    0.207480
O     -0.776187   -0.606828   -0.736924
C      0.585506   -0.712923   -0.419909
C      1.520667   -0.557919   -1.449279
C      2.889907   -0.652994   -1.185892
C      3.344269   -0.907892    0.117431
C      2.409085   -1.061591    1.152492
C      1.039602   -0.966675    0.888328
C      4.821081   -0.990924    0.411192
C      5.346684    0.279142    1.099821
C      5.345370    1.462721    0.174466
O      4.284138    2.004983   -0.233212
N      6.616213    1.960090   -0.197049
C      7.640783    1.252138    0.467676
O      8.858526    1.478826    0.245790
S      7.091514    0.007479    1.623380
H     -2.596462   -1.391449   -2.421480
H     -4.354068   -1.549133   -2.081543
H     -3.178667   -2.621736   -1.241483
H     -2.343804    1.257359   -1.426074
H     -3.989263    0.877062   -1.983209
H     -3.285197    1.925357    0.819129
H     -3.937984    2.898668   -0.536412
H     -6.089081    1.988487   -0.361429
H     -5.559982    1.870081    1.345334
H     -6.400091   -0.293481    1.022417
H     -6.000493   -0.317748   -0.724157
H     -3.994420   -0.525154    1.594977
H     -4.581307   -1.904430    0.635547
H     -1.714219    0.030185    1.003711
H     -1.787200   -1.742984    0.678588
H      1.183579   -0.360039   -2.458955
H      3.595147   -0.522264   -1.997295
H      2.742043   -1.253551    2.165121
H      0.344458   -1.090504    1.707258
H      4.998213   -1.864091    1.076623
H      5.396418   -1.178412   -0.522736
H      4.741581    0.509942    2.002919
H      6.774498    2.747296   -0.864805
