27

C      1.003199   -0.366300   -0.245959
C      2.337931    0.257888    0.179787
C      3.523922   -0.569163   -0.337316
N      4.798745    0.019570    0.067147
C     -0.182781    0.472254    0.257213
C     -1.549014   -0.205513    0.005119
C     -2.655638    0.580723    0.742318
C     -3.963687   -0.157061    0.741900
O     -4.141037   -1.117873    1.536249
O     -4.977192    0.190972   -0.146758
N     -1.833219   -0.254855   -1.434465
H      0.977179   -0.425221   -1.354910
H      0.932295   -1.395930    0.168660
H      2.406789    1.291556   -0.225001
H      2.384490    0.309306    1.289803
H      3.488358   -0.624550   -1.447223
H      3.462164   -1.605084    0.061804
H      4.853242    0.995816   -0.304690
H      4.829546    0.074399    1.111335
H     -0.165915    1.470347   -0.234122
H     -0.055519    0.629198    1.351458
H     -1.515497   -1.241329    0.415709
H     -2.361016    0.747952    1.801481
H     -2.785473    1.579990    0.272594
H     -4.859126    0.948903   -0.808320
H     -2.778576   -0.675181   -1.581907
H     -1.174170   -0.930812   -1.881905
