25

C      3.371613   -0.629913    0.103268
C      2.095185    0.101042   -0.224103
C      1.332222   -0.357553   -1.240540
C      0.035250    0.273574   -1.688336
C     -1.091013   -0.011273   -0.721896
C     -1.466832   -1.280800   -0.484629
C     -2.570520   -1.577132    0.447644
O     -2.908096   -2.769772    0.668310
C     -3.276847   -0.472937    1.119731
C     -2.923457    0.792593    0.881990
C     -1.823088    1.097717   -0.052626
O     -1.515429    2.299402   -0.272970
C      1.707239    1.318700    0.579878
H      3.142346   -1.683293    0.370627
H      3.905360   -0.164171    0.957641
H      4.047583   -0.617942   -0.777907
H      1.665185   -1.234194   -1.791211
H      0.181546    1.362026   -1.848036
H     -0.241554   -0.151227   -2.677379
H     -0.959454   -2.103159   -0.975572
H     -4.086220   -0.687307    1.806510
H     -3.449164    1.599524    1.377240
H      0.766504    1.122467    1.133123
H      1.573847    2.194409   -0.088788
H      2.487791    1.579218    1.324377
