32

C      2.921569   -1.571377    0.848441
C      2.870281   -0.239879    0.073878
C      2.904299    0.980350    1.014836
C      4.103630   -0.172429   -0.800774
O      3.996309   -0.043135   -2.050896
O      5.371856   -0.243321   -0.228043
O      1.724960   -0.192963   -0.796956
C      0.345830   -0.195324   -0.504956
C     -0.529612   -0.115618   -1.596077
C     -1.913708   -0.106340   -1.408329
C     -2.451435   -0.152345   -0.116113
C     -1.585448   -0.267831    0.980422
C     -0.199467   -0.277632    0.792856
C     -3.945439   -0.197657    0.073914
C     -4.509312    0.752718    1.130787
C     -4.727584    1.047498   -0.343601
Cl    -3.867863    2.508260   -0.917464
Cl    -6.396988    0.776116   -0.906413
H      2.873678   -2.424859    0.138338
H      2.092062   -1.681297    1.567751
H      3.865147   -1.650866    1.430472
H      2.095962    0.965307    1.766041
H      3.862602    1.015628    1.577001
H      2.808952    1.916980    0.424479
H      6.205108   -0.196097   -0.802104
H     -0.131481   -0.064508   -2.601747
H     -2.567277   -0.057340   -2.270683
H     -1.983235   -0.351805    1.984278
H      0.409115   -0.357943    1.672639
H     -4.476082   -1.169098   -0.017554
H     -5.394963    0.352288    1.668099
H     -3.771467    1.414519    1.633475
