42

C      1.613997   -2.827066    0.755392
C      3.084977   -2.972351    0.425094
C      2.193614   -2.090808   -0.448895
N      2.353007   -0.637922   -0.246035
C      3.619032   -0.121687   -0.293532
C      3.862921    1.243514   -0.100923
C      2.776096    2.096768    0.144398
O      2.974826    3.317031    0.400015
C      1.466520    1.585487    0.119376
C      0.357218    2.431207    0.309330
C     -0.940692    1.926466    0.249424
C     -1.158588    0.568798   -0.014688
C     -0.061159   -0.284970   -0.192348
C      1.265016    0.199006   -0.107182
N     -2.497835    0.049275   -0.086317
C     -3.450696    0.577030   -1.068043
C     -4.823432    0.842190   -0.414110
N     -5.088147    0.017336    0.781964
C     -4.408277   -1.283051    0.729311
C     -2.886175   -1.091368    0.750925
F     -1.988094    2.761294    0.467318
C      5.259391    1.742258   -0.136948
O      6.192235    1.018772    0.302767
O      5.575160    2.987469   -0.677621
H      1.412511   -2.200839    1.651061
H      0.999403   -3.714466    0.495345
H      3.344181   -3.955877   -0.020045
H      3.742249   -2.459837    1.159460
H      1.923655   -2.466822   -1.458534
H      4.460388   -0.778084   -0.488421
H      0.490316    3.488879    0.501996
H     -0.259291   -1.321284   -0.422844
H     -3.571053   -0.173732   -1.879091
H     -3.072309    1.509371   -1.540759
H     -4.888210    1.917513   -0.135438
H     -5.623182    0.656342   -1.162603
H     -4.752726    0.533634    1.629876
H     -4.712249   -1.830334   -0.190590
H     -4.717482   -1.897740    1.601850
H     -2.565649   -0.899036    1.798271
H     -2.389422   -2.017846    0.392724
H      4.887954    3.555479   -1.157020
