45

C     -4.284313   -2.299900   -0.284612
N     -3.777978   -1.038058   -0.849194
C     -4.544174    0.088980   -0.287403
C     -2.334287   -0.898298   -0.558361
C     -1.681750    0.129522   -1.498322
C     -0.141512    0.031779   -1.553427
C      0.598479    0.618107   -0.316719
C      2.058471    0.733999   -0.606236
C      2.420930    2.033367   -0.522941
C      1.241376    2.843935   -0.195862
O      0.134427    1.956505   -0.117696
C      3.731897    2.453655   -0.753682
C      4.694672    1.484477   -1.087184
C      4.319920    0.128818   -1.189271
C      2.989617   -0.254321   -0.952521
C      6.057129    1.877044   -1.333067
N      7.152777    2.192747   -1.530788
C      0.400414   -0.205948    0.960634
C      0.087296    0.424502    2.185532
C     -0.077826   -0.324643    3.353866
C      0.079607   -1.710396    3.327287
C      0.410645   -2.349844    2.132687
C      0.578364   -1.607275    0.960833
F     -0.081607   -2.433873    4.462508
H     -5.369662   -2.410973   -0.497283
H     -4.122586   -2.342416    0.816077
H     -3.773063   -3.164320   -0.760368
H     -5.627145   -0.037168   -0.503517
H     -4.405199    0.166563    0.814191
H     -4.237408    1.043416   -0.761924
H     -1.822831   -1.874244   -0.718957
H     -2.177914   -0.606692    0.502908
H     -1.984376    1.158232   -1.212880
H     -2.065986   -0.050892   -2.526380
H      0.165653   -1.014241   -1.759843
H      0.179494    0.615342   -2.445554
H      1.061175    3.596161   -0.992405
H      1.385008    3.351479    0.781267
H      3.992462    3.502629   -0.680967
H      5.051767   -0.624266   -1.455213
H      2.699778   -1.290674   -1.048213
H     -0.033661    1.497356    2.249773
H     -0.325720    0.173133    4.282591
H      0.540147   -3.424344    2.112806
H      0.837493   -2.138965    0.057824
