37

C      6.753764   -2.210310   -1.763572
C      5.557039   -1.801421   -1.028191
C      4.571039   -1.464193   -0.422242
C      3.396117   -1.060724    0.300045
O      2.502543   -1.914325    0.544411
N      3.276578    0.289699    0.771761
C      2.076018    0.841487    1.339737
C      0.804413    0.479836    0.857457
C     -0.358985    1.043249    1.417529
C     -0.232859    2.010917    2.439164
C      1.032430    2.385009    2.899867
C      2.178424    1.806783    2.351234
N     -1.340993    2.591957    2.966171
C     -2.580112    2.258298    2.528199
N     -2.730234    1.326267    1.553832
C     -1.660136    0.709326    0.981413
N     -1.883213   -0.312706   -0.005687
C     -2.999655   -0.306851   -0.912498
C     -3.484632   -1.523148   -1.419640
C     -4.556804   -1.539204   -2.318733
C     -5.143969   -0.338141   -2.727676
C     -4.656062    0.878252   -2.244150
C     -3.585366    0.897732   -1.345318
Br    -5.216084   -3.201365   -2.989792
H      7.432071   -1.340063   -1.879500
H      6.461678   -2.587351   -2.765267
H      7.275490   -3.013675   -1.203868
H      4.140902    0.878059    0.783350
H      0.735065   -0.203227    0.023577
H      1.130738    3.129080    3.680822
H      3.151616    2.108967    2.717539
H     -3.450794    2.731460    2.960661
H     -1.281136   -1.166149    0.020468
H     -3.034182   -2.457616   -1.109064
H     -5.972355   -0.346276   -3.424346
H     -5.103290    1.807855   -2.571830
H     -3.205062    1.852150   -1.005860
