55

C      1.505452    4.676234    0.829799
C      1.889331    3.237377    0.482837
C      2.542748    3.196999   -0.902926
N      0.675122    2.417217    0.494249
C      0.487521    1.121244    0.513828
C     -0.845408    0.693628    0.380585
C     -1.182758   -0.670106    0.303982
C     -0.087862   -1.651787    0.383114
N     -0.374796   -2.969683    0.313449
C     -1.649240   -3.406117    0.165394
C     -1.892880   -4.782679    0.095444
C     -3.194085   -5.260740   -0.056042
C     -4.261413   -4.367636   -0.138384
C     -4.035747   -2.990540   -0.069814
C     -2.724304   -2.478740    0.083644
N     -2.473700   -1.122310    0.154939
C     -3.560150   -0.178416    0.073480
C     -4.211086    0.248105    1.240049
C     -5.262296    1.166403    1.160337
C     -5.667132    1.662372   -0.084271
C     -5.018889    1.238480   -1.250038
C     -3.967498    0.320231   -1.172322
Cl    -6.985698    2.814780   -0.182970
C      1.221404   -1.220041    0.550938
C      1.529221    0.148104    0.622693
N      2.880099    0.500852    0.950651
C      4.023933    0.071792    0.187224
C      3.891624   -0.414742   -1.128116
C      5.020431   -0.808960   -1.852494
C      6.291125   -0.716968   -1.277009
C      6.432886   -0.225713    0.024124
C      5.306122    0.169813    0.751147
Cl     7.706027   -1.210748   -2.188578
H      1.045775    4.710371    1.840698
H      2.406898    5.326000    0.834137
H      0.774307    5.076213    0.094341
H      2.602543    2.914802    1.261601
H      2.751823    2.155177   -1.209988
H      3.501381    3.757932   -0.889924
H      1.869892    3.647413   -1.664005
H     -1.618461    1.449633    0.311216
H     -1.071206   -5.485710    0.158508
H     -3.375715   -6.326427   -0.109646
H     -5.269672   -4.743632   -0.255815
H     -4.894835   -2.336840   -0.137796
H     -3.900808   -0.132213    2.205006
H     -5.760471    1.491616    2.064699
H     -5.328289    1.619594   -2.214836
H     -3.468412   -0.004162   -2.076613
H      2.011049   -1.955122    0.655113
H      3.041642    0.884752    1.908960
H      2.920632   -0.478760   -1.601231
H      4.906310   -1.181469   -2.862546
H      7.415130   -0.148219    0.472636
H      5.432381    0.551345    1.756542
