30

C     -2.124459   -1.736790    1.018852
C     -2.138430   -0.235266    0.729599
C     -3.575243    0.237002    0.449116
N     -1.241889    0.039122   -0.409915
C     -0.693710    1.405777   -0.396892
C      0.610072    1.467592    0.427678
C      1.643165    0.458078   -0.058373
C      2.164519    0.573861   -1.363491
C      3.102026   -0.343170   -1.842873
C      3.534249   -1.390657   -1.031509
C      3.029906   -1.524913    0.262101
C      2.089144   -0.612916    0.757526
Cl     1.507623   -0.863256    2.401878
O      1.150436    2.766587    0.424597
H     -1.087280   -2.069948    1.234594
H     -2.756589   -1.965638    1.903379
H     -2.505224   -2.306184    0.143839
H     -1.774689    0.277976    1.647533
H     -3.597475    1.328650    0.253402
H     -3.998542   -0.291461   -0.431911
H     -4.221285    0.033900    1.329763
H     -1.753505   -0.116390   -1.310728
H     -0.482938    1.722235   -1.442323
H     -1.426147    2.136269    0.011324
H      0.332375    1.259222    1.477737
H      1.843267    1.372403   -2.019176
H      3.492628   -0.241800   -2.847249
H      4.260519   -2.100626   -1.405700
H      3.372380   -2.343506    0.882596
H      1.245094    3.063847   -0.517239
