15

C      0.399051   -0.917782    0.170840
C     -1.031677   -0.670119    0.667607
C     -1.176597    0.860521    0.720392
N      0.044503    1.386851    0.140423
C      0.880640    0.450705   -0.147597
C      2.194865    0.738923   -0.734582
O      2.991544   -0.199341   -0.999568
O      2.567868    2.050522   -1.001193
O     -1.984094   -1.249627   -0.190707
H      0.426011   -1.563448   -0.733766
H      1.025625   -1.360554    0.974972
H     -1.160837   -1.100056    1.685050
H     -2.055172    1.220766    0.143020
H     -1.262130    1.206538    1.773007
H     -1.859601   -0.853900   -1.093613
