16

C      0.050694   -1.290857    0.099885
C      0.739827    0.054279    0.353566
N     -0.192230    1.128826   -0.050507
C     -1.546855    0.568926    0.019661
C     -1.366781   -0.898125    0.021020
O     -2.289449   -1.695176   -0.039396
C      2.064528    0.158837   -0.356399
O      2.127692    0.076242   -1.612047
O      3.229355    0.350724    0.375806
H      0.355741   -1.756789   -0.862369
H      0.221411   -1.995014    0.942895
H      0.926042    0.139393    1.449884
H     -0.104122    1.950726    0.592396
H     -0.006450    1.442238   -1.033046
H     -2.152782    0.883573   -0.859017
H     -2.056622    0.882196    0.957670
