18

C      1.501878    0.382332   -0.750661
C      0.689015    0.183087    0.539729
C     -0.850271    0.142267    0.314657
C     -1.369035    1.489235   -0.125603
O     -1.464299    1.777473   -1.348421
O     -1.700081    2.444139    0.827622
N     -1.265470   -0.915220   -0.620931
C      1.158175   -1.040612    1.284376
O      1.158593   -1.046303    2.543722
O      1.545129   -2.186714    0.598453
H      1.184333    1.307492   -1.274519
H      2.579576    0.488622   -0.501768
H      1.390630   -0.480206   -1.440254
H      0.908187    1.060496    1.190145
H     -1.325760   -0.070116    1.299840
H     -0.890276   -0.745400   -1.581408
H     -0.940252   -1.848458   -0.281963
H     -2.310072   -0.942115   -0.673016
