16

C     -0.236319    1.000931   -0.093935
C     -1.460070    0.143294   -0.435086
C     -0.927274   -1.294294   -0.498843
N      0.514418   -1.183345   -0.386445
C      0.884464    0.030171   -0.168386
C      2.299528    0.401703   -0.002812
O      2.609563    1.602380    0.215338
O      3.308620   -0.555512   -0.083030
O     -2.450013    0.256942    0.553205
H     -0.300130    1.423267    0.932586
H     -0.099345    1.814341   -0.838720
H     -1.868830    0.432677   -1.431665
H     -1.313719   -1.910406    0.342051
H     -1.193556   -1.776474   -1.463798
H      3.104690   -1.532215   -0.257049
H     -2.872027    1.146540    0.426284
