42

C     -0.739410    4.005466   -1.338899
C      0.557254    3.493205   -1.315672
C      0.798691    2.213424   -0.808460
C     -0.266350    1.396849   -0.359835
C     -1.559086    1.968831   -0.322997
C     -1.794631    3.248788   -0.831219
C     -0.008053    0.026403    0.311232
C      1.301713   -0.621582   -0.195793
C      2.216214   -1.267260    0.668337
C      3.354493   -1.902789    0.164006
C      3.590371   -1.935697   -1.209623
C      2.680463   -1.345292   -2.084903
C      1.540818   -0.708863   -1.587346
C     -1.110477   -1.021320   -0.016251
C     -1.816089   -0.938658   -1.244236
C     -2.787958   -1.877034   -1.591506
C     -3.050889   -2.953525   -0.752815
C     -2.315961   -3.115500    0.417697
C     -1.331966   -2.186496    0.780948
Cl    -0.378664   -2.600732    2.203878
N      0.035352    0.341119    1.761301
C      1.027830    0.988873    2.409095
C      0.570079    1.379106    3.643972
N     -0.726318    1.042672    3.767532
C     -1.025985    0.438935    2.599458
H     -0.922636    4.999164   -1.726765
H      1.381450    4.096193   -1.674435
H      1.824781    1.876175   -0.754756
H     -2.391319    1.423414    0.102767
H     -2.795725    3.660012   -0.816838
H      2.059686   -1.300163    1.735528
H      4.049952   -2.381575    0.841327
H      4.471119   -2.431620   -1.596652
H      2.853390   -1.387030   -3.152550
H      0.844195   -0.276358   -2.293390
H     -1.616593   -0.148726   -1.954780
H     -3.329308   -1.774941   -2.523320
H     -3.802370   -3.682842   -1.026614
H     -2.496182   -3.986311    1.035746
H      2.001171    1.215426    1.993358
H      1.133645    1.920215    4.391922
H     -2.026695    0.110043    2.351550
