36

C     -2.196760    2.435271   -0.530906
C     -1.142693    1.501974    0.089974
C      0.263703    1.972414   -0.381066
C      1.424496    1.102177    0.129913
C      1.498226   -0.292180   -0.562227
C      0.759877   -1.416444    0.204193
C     -0.701089   -1.061922    0.640498
C     -1.400828    0.003604   -0.279177
C     -2.835972   -0.459095   -0.318577
C     -2.930594   -1.741631   -0.015167
C     -1.644267   -2.211929    0.451892
O     -1.400278   -3.408580    0.762799
C     -0.772578   -0.726692    2.155815
C      2.974246   -0.512466   -0.709273
C      3.577580   -1.627579   -1.120812
C      3.611557    0.768269   -0.507388
O      4.834038    1.016353   -0.679624
O      2.684364    1.716608   -0.129402
H     -1.927431    3.498994   -0.355589
H     -2.276333    2.263946   -1.626024
H     -3.188016    2.271396   -0.058853
H     -1.213938    1.649211    1.186584
H      0.430084    3.008055   -0.010986
H      0.299242    2.015782   -1.492335
H      1.362814    0.995612    1.227261
H      1.103424   -0.229401   -1.599461
H      1.361450   -1.711336    1.092613
H      0.740318   -2.305231   -0.464310
H     -1.070397   -0.136491   -1.331336
H     -3.658423    0.091712   -0.754368
H     -3.832787   -2.333476   -0.095761
H     -1.806803   -0.443399    2.450532
H     -0.103722    0.096115    2.456345
H     -0.478451   -1.612628    2.760097
H      4.650652   -1.654686   -1.260295
H      3.005290   -2.522328   -1.325579
