32

C      5.015775   -0.619793    0.286745
C      3.686493   -0.179625   -0.319507
C      2.550923   -0.277632    0.705466
C      1.217238    0.164306    0.092401
C      0.081600    0.073978    1.119119
C     -1.240262    0.465090    0.493383
C     -2.156277   -0.490385   -0.026480
C     -3.376143   -0.041920   -0.590498
C     -3.674064    1.323234   -0.617780
C     -2.767989    2.260105   -0.117088
C     -1.557924    1.832239    0.426725
O     -3.059799    3.621839   -0.157391
O     -4.303137   -0.921257   -1.156029
C     -1.868450   -1.938677    0.042291
O     -0.796959   -2.398595   -0.435069
O     -2.782634   -2.800930    0.640548
H      5.817714   -0.538292   -0.476940
H      5.279805    0.028202    1.149575
H      4.954348   -1.675855    0.625936
H      3.458754   -0.826778   -1.194557
H      3.782848    0.870084   -0.673316
H      2.786703    0.369422    1.579169
H      2.463135   -1.329407    1.057235
H      1.306107    1.214678   -0.263274
H      0.983172   -0.480186   -0.782450
H      0.032247   -0.947027    1.552560
H      0.303751    0.756471    1.969260
H     -4.610106    1.657058   -1.048231
H     -0.863873    2.571257    0.809396
H     -3.929790    3.966252   -0.546531
H     -4.133692   -1.912165   -1.267465
H     -2.599515   -3.795693    0.695547
