41

C      4.714128   -0.563490   -1.010795
C      4.027086   -0.559414    0.354135
C      3.477122    0.823940    0.743078
C      2.393985    1.382662   -0.202023
C      1.173184    0.466566   -0.427767
C      0.391870    0.098598    0.857776
C     -0.177250    1.332618    1.582232
C     -0.672148   -1.009937    0.619049
C     -1.597852   -0.888631   -0.627124
C     -2.462975   -2.151711   -0.754175
C     -2.475082    0.387765   -0.695211
C     -3.456494    0.588820    0.482586
C     -4.895919    0.237503    0.107326
H      5.491401    0.228625   -1.056715
H      5.201314   -1.547519   -1.175744
H      3.974426   -0.404415   -1.822624
H      3.220170   -1.321637    0.371884
H      4.774264   -0.861618    1.119537
H      4.320956    1.547417    0.771544
H      3.078861    0.775566    1.778236
H      2.854626    1.602504   -1.188759
H      2.048764    2.360499    0.196212
H      0.495726    0.991027   -1.133443
H      1.503733   -0.461633   -0.940299
H      1.112142   -0.360515    1.568615
H     -0.642803    2.051952    0.882541
H      0.640702    1.867301    2.109706
H     -0.922508    1.035553    2.349713
H     -1.273092   -1.153984    1.540989
H     -0.106627   -1.962138    0.503335
H     -0.948383   -0.877342   -1.529411
H     -3.082756   -2.299644    0.155231
H     -1.816647   -3.045830   -0.885325
H     -3.128640   -2.080973   -1.640825
H     -1.820216    1.274108   -0.781720
H     -3.033562    0.380633   -1.657680
H     -3.166383   -0.002947    1.372332
H     -3.435525    1.657984    0.786651
H     -4.974748   -0.823887   -0.204719
H     -5.557647    0.397284    0.984601
H     -5.247201    0.888337   -0.721514
