28

C     -3.340776    0.198512    1.052840
C     -2.249862    0.084794   -0.017768
C     -2.178275   -1.349817   -0.513581
C     -1.011967   -1.954121   -0.758643
C      0.259344   -1.288747   -0.438068
C      0.226006   -0.062671    0.235870
O     -1.006688    0.513501    0.559722
C      1.417317    0.571279    0.602512
C      2.658287   -0.014626    0.281833
C      2.681337   -1.239212   -0.398828
C      1.489284   -1.878060   -0.754331
O      3.881679    0.582519    0.620174
C      4.007405    1.821938    1.309693
C     -2.581137    1.003577   -1.200570
H     -3.104309   -0.467720    1.910306
H     -3.402955    1.241758    1.430500
H     -4.332435   -0.089704    0.641117
H     -3.095878   -1.864068   -0.774692
H     -1.008220   -2.950805   -1.183028
H      1.365045    1.514430    1.129181
H      3.628695   -1.700215   -0.648142
H      1.526511   -2.829603   -1.270245
H      5.083603    2.054623    1.443869
H      3.531183    1.752120    2.310480
H      3.538297    2.636860    0.718856
H     -3.553586    0.721758   -1.659778
H     -1.788106    0.931140   -1.975882
H     -2.639801    2.060561   -0.862847
