38

C     -3.444651    0.625173    2.921291
C     -3.184669   -0.591339    2.046726
O     -2.066248   -0.337009    1.228910
P     -1.735610   -1.724939    0.287117
S     -1.018107   -2.961528    1.263597
O     -3.171865   -2.339130   -0.399746
C     -3.583787   -1.462842   -1.421535
C     -4.945445   -1.904372   -1.934572
O     -0.636149   -1.302211   -0.973971
C      0.600498   -0.662855   -0.794197
C      1.087107   -0.268633    0.465959
C      2.328355    0.366851    0.581601
C      3.112526    0.619908   -0.567500
C      2.615416    0.223926   -1.825811
C      1.374480   -0.408944   -1.930018
C      4.364787    1.262626   -0.403622
C      4.766535    1.629091    0.901239
C      3.919729    1.337636    1.980201
O      4.254790    1.652586    3.152777
O      2.758105    0.729231    1.783436
Cl     6.300021    2.444904    1.226080
C      5.242116    1.551052   -1.602240
H     -2.561530    0.826291    3.564140
H     -4.327465    0.440975    3.569184
H     -3.643376    1.514483    2.286252
H     -4.094264   -0.771705    1.432401
H     -3.004471   -1.462186    2.716089
H     -3.680563   -0.417133   -1.049317
H     -2.867450   -1.493153   -2.272396
H     -5.280476   -1.223826   -2.745712
H     -5.689022   -1.875554   -1.110027
H     -4.884476   -2.938791   -2.334590
H      0.517872   -0.446510    1.366179
H      3.172403    0.397330   -2.736398
H      1.009269   -0.705183   -2.905615
H      6.207643    2.024004   -1.340371
H      4.711418    2.237467   -2.295071
H      5.476552    0.602937   -2.130471
