14

C     -1.790353    0.336742    0.354481
C     -1.542760   -1.020851    0.148900
C     -0.246825   -1.460093   -0.131035
C      0.814127   -0.548075   -0.208356
C      0.562679    0.830658    0.000428
C     -0.742370    1.257064    0.280427
O      1.567107    1.798683   -0.060282
O      2.086422   -1.048811   -0.491485
H     -2.794824    0.676660    0.571391
H     -2.355233   -1.733689    0.206392
H     -0.064445   -2.515618   -0.289100
H     -0.944266    2.308585    0.441437
H      2.536634    1.594244   -0.254887
H      2.914107   -0.475500   -0.568310
