25

C      2.622114   -0.847968   -0.823463
C      1.480112   -0.042860   -0.288469
C      1.410582    1.310097   -0.439176
C      0.205602    1.980553    0.148412
O      0.004956    3.218198    0.039042
C     -0.761126    1.056564    0.889922
C      0.156163    0.174509    1.764937
C      0.347637   -0.713939    0.515021
C     -1.027489   -0.194259    0.004723
C     -2.211230   -1.046286    0.528568
C     -1.213996    0.010105   -1.525577
H      2.227666   -1.679891   -1.443304
H      3.203058   -1.269989    0.022711
H      3.297922   -0.228078   -1.450502
H      2.166807    1.872215   -0.972324
H     -1.629439    1.528365    1.398406
H     -0.390205   -0.340591    2.584287
H      1.077018    0.664299    2.161084
H      0.441367   -1.805916    0.700500
H     -2.230524   -2.027036    0.007189
H     -3.170553   -0.522153    0.331030
H     -2.159044   -1.248018    1.617121
H     -2.188380    0.507477   -1.717225
H     -0.438784    0.622635   -2.020327
H     -1.220233   -0.978031   -2.032587
