46

C      5.144871    0.114974   -2.137149
N      4.687041    0.055872   -0.739363
C      5.552322   -0.865806    0.018292
C      3.273337   -0.375976   -0.684625
C      2.611393    0.091063    0.611392
O      1.218666   -0.195590    0.557009
C      0.335671    0.131814    1.590384
O      0.760556    0.710111    2.628393
C     -1.142792   -0.157954    1.457784
C     -1.909542    1.099182    1.064405
C     -3.139856    1.388270    1.685271
C     -3.868824    2.525223    1.325308
C     -3.377304    3.392577    0.348254
C     -2.152720    3.127780   -0.267221
C     -1.419505    1.992036    0.087944
C     -1.448379   -1.420260    0.564810
C     -1.285795   -1.171815   -0.945466
C     -2.666589   -0.847028   -1.504829
C     -3.688730   -1.290465   -0.466070
C     -2.911558   -1.885244    0.701927
O     -0.589020   -2.473921    0.939961
H      5.036851   -0.873139   -2.638429
H      6.209493    0.431459   -2.182715
H      4.558988    0.873826   -2.699141
H      6.607634   -0.519154   -0.020626
H      5.263352   -0.882262    1.088958
H      5.499435   -1.900215   -0.389221
H      3.179938   -1.481768   -0.781916
H      2.695856    0.077362   -1.522720
H      2.759295    1.187017    0.728066
H      3.055939   -0.432881    1.483351
H     -1.464973   -0.429355    2.489146
H     -3.540443    0.730420    2.445902
H     -4.816448    2.733573    1.804917
H     -3.943532    4.272278    0.070930
H     -1.769758    3.804156   -1.020422
H     -0.470121    1.816598   -0.399493
H     -0.560727   -0.371051   -1.188845
H     -0.921485   -2.101389   -1.438209
H     -2.830194   -1.376904   -2.468795
H     -2.760569    0.245012   -1.688583
H     -4.384341   -2.044592   -0.895210
H     -4.288346   -0.419299   -0.125139
H     -2.960683   -2.994827    0.623728
H     -3.365122   -1.600820    1.675342
H     -0.773281   -2.688886    1.892309
