50

C      5.195502    0.256102   -1.178303
C      4.230630   -0.745911   -1.810166
C      2.807287   -0.588333   -1.232074
N      2.788839    0.038237    0.117542
C      3.927264   -0.432846    0.933258
C      5.259480    0.067354    0.345233
C      1.511568   -0.223385    0.820239
C      0.354406    0.584361    0.194024
C     -1.026170    0.445200    0.920014
C     -1.627987   -0.999864    0.716299
C     -1.904533   -1.429006   -0.724472
C     -2.901420   -2.579346   -0.618697
C     -3.530913   -2.494813    0.772533
C     -2.948858   -1.255216    1.439197
C     -1.998318    1.534779    0.416330
C     -2.021271    1.961441   -0.933356
C     -2.920062    2.942532   -1.361502
C     -3.815446    3.516409   -0.460459
C     -3.817479    3.108381    0.872201
C     -2.921933    2.128468    1.308507
O     -0.811416    0.682460    2.298212
H      4.849809    1.287532   -1.411644
H      6.209659    0.129601   -1.615073
H      4.600412   -1.776524   -1.612899
H      4.209838   -0.601949   -2.912328
H      2.237174    0.060920   -1.930004
H      2.318710   -1.588939   -1.223366
H      3.853567   -0.052009    1.976185
H      3.930233   -1.546298    0.980573
H      6.059200   -0.663175    0.596431
H      5.533863    1.038125    0.813011
H      1.284223   -1.311151    0.818528
H      1.608157    0.096696    1.879786
H      0.247311    0.270380   -0.861361
H      0.655460    1.655700    0.194913
H     -0.905856   -1.738881    1.129883
H     -2.375508   -0.612947   -1.306427
H     -0.973945   -1.756643   -1.236868
H     -3.678416   -2.496941   -1.410038
H     -2.373699   -3.551374   -0.736781
H     -4.638746   -2.424636    0.707248
H     -3.263027   -3.398728    1.362990
H     -3.659194   -0.416730    1.290855
H     -2.793764   -1.416485    2.528129
H     -1.355696    1.540057   -1.671485
H     -2.923423    3.256276   -2.397491
H     -4.510960    4.274737   -0.796148
H     -4.517558    3.549467    1.570028
H     -2.964474    1.827282    2.347251
H     -0.492519   -0.150367    2.733722
