47

C     -4.416979   -0.868894    1.362301
C     -3.079529   -0.758286    0.617747
C     -2.289549    0.556874    0.687661
C     -3.078667    0.201168   -0.582574
C     -2.217997   -0.170614   -1.751059
O     -2.509099   -1.184598   -2.446208
O     -1.116163    0.625945   -2.085875
C     -0.041139    0.147095   -2.891299
C      0.813036    1.273396   -3.286606
N      1.486005    2.159507   -3.598000
C      0.763235   -0.860541   -2.106908
C      1.305646   -0.511586   -0.857098
C      2.002225   -1.460941   -0.090774
C      2.132291   -2.769104   -0.569355
C      1.609405   -3.118494   -1.816042
C      0.927933   -2.170258   -2.584277
O      2.528900   -1.141539    1.169409
C      3.085332    0.099439    1.519232
C      3.037912    0.504610    2.860019
C      3.605104    1.724462    3.251897
C      4.231531    2.537774    2.304736
C      4.287429    2.140269    0.965459
C      3.724719    0.921961    0.571567
C     -2.879926    1.690682    1.486098
C     -2.711360    2.973424    1.134127
Cl    -1.826855    3.440036   -0.321310
Cl    -3.326133    4.245018    2.174655
C     -2.215609   -2.027349    0.565170
H     -5.050402    0.034815    1.233449
H     -4.982788   -1.740979    0.973230
H     -4.226213   -1.025375    2.444732
H     -1.182332    0.482275    0.614429
H     -3.997429    0.799641   -0.763228
H     -0.451996   -0.304245   -3.822418
H      1.159748    0.489207   -0.472116
H      2.655551   -3.511007    0.021446
H      1.733256   -4.126564   -2.190560
H      0.519321   -2.461714   -3.544779
H      2.558561   -0.126318    3.599509
H      3.563951    2.031643    4.290490
H      4.676832    3.477610    2.608047
H      4.781625    2.767237    0.235594
H      3.805151    0.615188   -0.464459
H     -3.382605    1.465164    2.421946
H     -2.050217   -2.403335    1.595549
H     -2.738996   -2.812480   -0.017948
H     -1.222713   -1.850219    0.102726
