16

C      1.639809   -0.197226   -0.227714
C      0.808770    0.037872    1.034499
S     -0.521283    1.259052    0.731738
P     -2.038537   -0.163704    0.305100
O     -2.293729   -1.016088    1.527821
O     -1.564106   -1.151483   -0.983693
O     -3.460386    0.651872   -0.114634
N      2.316795    1.030361   -0.636487
H      0.981200   -0.547415   -1.050196
H      2.392427   -0.992301   -0.028139
H      0.399198   -0.927552    1.398457
H      1.467589    0.434119    1.836037
H     -2.344348   -1.737244   -1.153743
H     -3.653032    1.239143    0.659313
H      3.060917    1.243845    0.067140
H      2.808717    0.836751   -1.538697
