33

C      4.821084   -0.002351    0.233052
N      3.463489   -0.331179    0.678114
C      2.363906   -0.282555   -0.249217
O      2.556749    0.110630   -1.432860
N      1.045326   -0.679228    0.162901
C     -0.125747   -0.532515   -0.713182
C     -0.557738    0.945729   -0.795486
C     -1.203989    1.401006    0.529566
C     -2.241124    0.375962    1.057676
O     -1.740220   -0.955489    1.072297
C     -1.302658   -1.388426   -0.206993
O     -0.887328   -2.724729   -0.118290
C     -3.625425    0.489366    0.381793
O     -4.523457   -0.424426    0.951438
O     -0.208426    1.576925    1.506665
O     -1.466851    1.128698   -1.850832
N      3.196028   -0.537889    2.043495
O      4.101046   -0.489700    2.902294
H      4.985539   -0.342789   -0.811359
H      5.574733   -0.512626    0.868532
H      4.975606    1.095310    0.290961
H      0.924303   -1.113994    1.105265
H      0.143598   -0.893729   -1.731143
H      0.334994    1.586054   -0.986226
H     -1.718829    2.377335    0.365032
H     -2.423450    0.647240    2.121400
H     -2.130788   -1.342750   -0.949750
H     -1.693253   -3.254833    0.116713
H     -3.575121    0.347676   -0.718466
H     -4.023790    1.512611    0.550290
H     -4.353712   -1.300255    0.516149
H      0.258973    2.427318    1.295686
H     -0.943469    1.087602   -2.693696
