29

C      3.094443   -0.870772   -1.005867
C      1.877008   -1.395403   -0.561330
C      1.304143   -0.933742    0.631443
C      1.950877    0.067605    1.368362
C      3.168320    0.592411    0.924055
C      3.746825    0.124669   -0.264504
N      4.991461    0.661960   -0.719499
S     -0.239969   -1.575922    1.177426
O     -0.383164   -3.007426    0.740355
O     -0.308934   -1.537723    2.678933
C     -1.538752   -0.606960    0.492552
C     -2.083753   -0.940115   -0.754842
C     -3.102259   -0.158466   -1.308620
C     -3.580604    0.966940   -0.622493
C     -3.028358    1.304693    0.621319
C     -2.009861    0.522870    1.174866
N     -4.621599    1.766965   -1.189161
H      3.527484   -1.237342   -1.928073
H      1.380497   -2.157223   -1.148806
H      1.511875    0.444812    2.283247
H      3.658846    1.364373    1.503556
H      5.484165    1.404576   -0.174860
H      5.429450    0.320903   -1.604211
H     -1.718413   -1.800994   -1.300218
H     -3.516239   -0.427663   -2.272215
H     -3.384833    2.174008    1.159444
H     -1.586991    0.800998    2.131866
H     -4.983467    2.607811   -0.686272
H     -5.038199    1.524157   -2.115637
