26

C     -0.645348   -1.279958    1.232382
C      0.846744   -0.951472    1.272010
N      1.342310   -0.510968   -0.045609
C      0.468083    0.196910   -1.002564
C     -0.861205    0.598444   -0.410227
C     -1.594763    1.650960   -0.981381
C     -2.851703    1.991088   -0.473368
C     -3.392876    1.272566    0.595257
C     -2.678399    0.212300    1.159123
C     -1.408448   -0.123509    0.664154
C      2.746633   -0.666036   -0.354750
N      3.593161   -0.917096    0.595386
N      3.221075   -0.544128   -1.702702
H     -0.990859   -1.514466    2.262955
H     -0.814147   -2.173544    0.593415
H      1.037327   -0.151489    2.020306
H      1.384880   -1.868552    1.597801
H      0.276180   -0.460405   -1.877050
H      0.988075    1.114736   -1.355925
H     -1.194974    2.204551   -1.822005
H     -3.410544    2.806310   -0.914503
H     -4.369939    1.532383    0.981690
H     -3.114632   -0.345947    1.978156
H      4.613955   -1.034711    0.408292
H      2.568586   -0.417125   -2.506238
H      4.240828   -0.620842   -1.914606
