56

C      5.175264   -1.969423    0.564059
N      5.849530   -0.647725    0.588605
C      7.107171   -0.804918    1.363180
C      6.208852   -0.245362   -0.791949
C      5.007877    0.384225    1.282713
C      3.882965    1.069963    0.461111
C      2.696136    0.161000    0.106058
C      1.435638    0.982762   -0.195915
C      0.265531    0.070138   -0.592838
C     -0.980197    0.858595   -1.025977
C     -1.646448    1.605921    0.143022
C     -3.018433    2.195087   -0.249500
C     -4.213954    1.391659    0.293701
C     -4.326936   -0.012787   -0.348024
N     -5.560480   -0.778754    0.010614
C     -5.673790   -0.962573    1.477472
C     -6.780664   -0.110140   -0.503883
C     -5.465474   -2.118077   -0.620794
H      4.833446   -2.267540    1.580193
H      5.862593   -2.762814    0.192608
H      4.303586   -1.982541   -0.114012
H      6.892987   -1.089333    2.418376
H      7.761891   -1.592471    0.925571
H      7.694052    0.141319    1.375445
H      5.323551   -0.257906   -1.463304
H      6.952306   -0.946631   -1.233720
H      6.650034    0.776234   -0.804948
H      5.657798    1.221420    1.629067
H      4.562801   -0.037379    2.212704
H      4.283409    1.553316   -0.454466
H      3.504241    1.902619    1.094925
H      2.946433   -0.423429   -0.802956
H      2.482992   -0.533861    0.947869
H      1.650658    1.692435   -1.025151
H      1.160627    1.565022    0.709456
H      0.007628   -0.604610    0.252880
H      0.580407   -0.567946   -1.447652
H     -1.700124    0.138780   -1.467976
H     -0.707259    1.582471   -1.824915
H     -1.745327    0.934198    1.023841
H     -0.983610    2.444803    0.445938
H     -3.089348    3.220064    0.176843
H     -3.108177    2.310502   -1.352369
H     -5.124127    1.985766    0.078613
H     -4.112150    1.308157    1.396339
H     -4.267180    0.104753   -1.454652
H     -3.430146   -0.595798   -0.039201
H     -5.886924   -0.001964    1.994026
H     -6.509318   -1.653361    1.730683
H     -4.735765   -1.387128    1.899892
H     -6.678024    0.134279   -1.584609
H     -7.002504    0.826868    0.048962
H     -7.674784   -0.762547   -0.383988
H     -4.572558   -2.672767   -0.253498
H     -6.361630   -2.738994   -0.394160
H     -5.385073   -2.033576   -1.728150
