40

C     -3.283783   -0.320819    2.660934
C     -3.438948    0.412704    1.316285
C     -4.917430    0.787418    1.108239
C     -2.820621   -0.389861    0.123262
C     -2.644660    0.466540   -1.096718
O     -3.569397    0.975259   -1.784032
N     -1.277790    0.592123   -1.427391
C     -0.622540   -0.193797   -0.442997
N     -1.424631   -0.726837    0.425862
C      0.843006   -0.306794   -0.327235
C      1.701370   -0.407914   -1.450838
C      3.089492   -0.386480   -1.233403
C      3.608340   -0.319638    0.065090
C      2.720150   -0.262700    1.142271
N      1.381163   -0.252830    0.922086
C      5.094934   -0.292017    0.303680
O      5.499628    0.983421    0.762484
C      5.778740    1.829605   -0.331743
C      1.200398   -0.617913   -2.829025
O      1.864167   -0.201623   -3.815479
O      0.026108   -1.325704   -3.057051
C     -3.585762   -1.675936   -0.236127
H     -3.872706   -1.261307    2.675599
H     -2.218395   -0.556783    2.864318
H     -3.644153    0.326087    3.489297
H     -2.871707    1.366708    1.409437
H     -5.560925   -0.116826    1.085182
H     -5.059600    1.360936    0.171501
H     -5.263324    1.432870    1.943831
H     -0.853452    1.194137   -2.167316
H      3.770602   -0.454557   -2.073720
H      3.091719   -0.211592    2.157694
H      5.333780   -1.032504    1.096339
H      5.661633   -0.629908   -0.596381
H      6.656704    1.460617   -0.906507
H      4.895184    1.939145   -0.998703
H      6.031699    2.837401    0.056521
H     -3.653784   -2.354107    0.638723
H     -4.609205   -1.443865   -0.597592
H     -3.056006   -2.222662   -1.046377
