42

C      5.339087   -0.452284   -1.003649
N      3.955248   -0.721423   -0.610859
C      3.033159   -0.294160   -1.670401
C      1.577938   -0.475634   -1.224574
C      1.225853    0.430153   -0.033418
N     -0.197019    0.308898    0.330746
C     -0.751819   -0.989062    0.590243
C     -0.204173   -1.818450    1.581386
C     -0.741782   -3.088401    1.808098
C     -1.824616   -3.535824    1.046512
C     -2.368982   -2.715769    0.053800
C     -1.824525   -1.443415   -0.184516
C     -2.396787   -0.534217   -1.230565
C     -3.160333    0.613132   -0.570395
C     -2.338429    1.644006    0.194045
C     -3.023118    2.825675    0.539880
C     -2.402403    3.833368    1.275490
C     -1.087208    3.678031    1.697147
C     -0.385959    2.516661    1.380649
C     -0.982195    1.486933    0.624248
H      6.023350   -0.805452   -0.203579
H      5.498064    0.639933   -1.133214
H      5.595090   -0.983600   -1.947068
H      3.858891   -1.757586   -0.492776
H      3.203060    0.776495   -1.923819
H      3.201288   -0.899520   -2.589893
H      0.912332   -0.224713   -2.078418
H      1.410011   -1.542047   -0.960280
H      1.456278    1.478708   -0.324535
H      1.854813    0.173027    0.845464
H      0.629772   -1.477929    2.181237
H     -0.321009   -3.724617    2.575932
H     -2.242836   -4.517772    1.226235
H     -3.210349   -3.072478   -0.527010
H     -1.592156   -0.132414   -1.883359
H     -3.093571   -1.097948   -1.888937
H     -3.714376    1.139414   -1.379006
H     -3.925305    0.190122    0.117726
H     -4.054701    2.967291    0.239470
H     -2.947953    4.733610    1.527741
H     -0.610584    4.456553    2.278888
H      0.627953    2.412707    1.745336
