8

C      0.863001   -0.423730   -0.154523
C     -0.344862    0.296847    0.342432
O     -0.221749    1.240185    1.168627
O     -1.603518   -0.044562   -0.142032
Cl     1.491742    0.393616   -1.604470
H      0.597258   -1.470338   -0.412091
H      1.650101   -0.437873    0.628850
H     -2.431974    0.445856    0.173207
