14

C      0.654654   -1.299704   -0.522652
C     -0.740401   -1.250153   -0.457290
C     -1.387781   -0.099272    0.007760
C     -0.622660    1.013661    0.411343
C      0.775282    0.958010    0.343536
C      1.416088   -0.197718   -0.123165
O      2.805961   -0.260339   -0.193394
Cl    -1.379960    2.485917    1.003898
O     -2.782183   -0.089310    0.057840
H      1.144334   -2.195091   -0.883999
H     -1.321302   -2.108974   -0.769041
H      1.363806    1.812568    0.653389
H      3.386185    0.521149    0.088572
H     -3.312023    0.709256    0.383202
