14

C      0.108849   -1.156885   -0.360404
C     -1.286208   -1.059787   -0.377705
C     -1.910528    0.138359   -0.022001
C     -1.140149    1.242220    0.351878
C      0.255189    1.150500    0.370886
C      0.894639   -0.051837    0.014381
C      2.370279   -0.156037    0.032212
O      3.078303    0.830784    0.367114
O      2.996744   -1.345852   -0.320797
F     -3.263137    0.229778   -0.039636
H      0.570250   -2.095619   -0.640050
H     -1.882705   -1.915347   -0.667465
H     -1.623347    2.170799    0.627574
H      0.831822    2.018924    0.664014
