31

C      4.119030   -0.743372    1.076043
C      3.040079   -1.535268    0.399208
O      3.292849   -2.725601    0.067289
C      1.697136   -0.957168    0.113678
C      0.716019   -1.740901   -0.517276
C     -0.561321   -1.218838   -0.789239
C     -0.865976    0.097924   -0.420175
C      0.116176    0.911598    0.178495
C      1.386356    0.371522    0.454642
O     -0.192314    2.253346    0.457563
C      0.701165    3.184599    1.059247
O     -2.150873    0.585972   -0.698985
C     -2.935810    1.304864    0.210207
O     -2.642948    1.332827    1.436609
C     -4.188714    1.959450   -0.262536
O     -1.560509   -1.980621   -1.416628
C     -1.401211   -3.329560   -1.844039
H      5.032703   -1.361656    1.206958
H      3.773313   -0.413733    2.078160
H      4.380636    0.141729    0.459174
H      0.948063   -2.760295   -0.793361
H      2.135075    0.992221    0.923306
H      1.598979    3.320663    0.420056
H      0.188309    4.162606    1.162918
H      0.998283    2.830991    2.069128
H     -4.379424    2.885278    0.320276
H     -5.041961    1.261774   -0.133254
H     -4.094080    2.225329   -1.336173
H     -2.347505   -3.676939   -2.306825
H     -1.171140   -3.981088   -0.974689
H     -0.590386   -3.397653   -2.599777
