33

C     -3.121332   -0.770775    1.737158
N     -2.314207   -0.803394    0.513619
C     -2.206768   -2.035218   -0.225907
O     -2.919475   -3.028216    0.085904
C     -1.240649   -2.159560   -1.361095
N      0.096831   -1.819794   -0.891529
C      0.471182   -0.636890   -0.492365
C     -0.468494    0.521770   -0.525819
C     -1.797345    0.428589   -0.036136
C     -2.625795    1.565286   -0.082235
C     -2.156527    2.770389   -0.605318
C     -0.853781    2.860460   -1.093771
C     -0.016317    1.743919   -1.057288
Cl    -0.268360    4.375229   -1.757012
C      1.873650   -0.455811   -0.033251
C      2.899972   -1.279302   -0.534864
C      4.217788   -1.115848   -0.096958
C      4.525610   -0.136445    0.849664
C      3.515550    0.679548    1.363372
C      2.196126    0.520868    0.929131
H     -4.198689   -0.715874    1.474400
H     -2.937530   -1.682589    2.344443
H     -2.850258    0.107622    2.361510
H     -1.539577   -1.490134   -2.196465
H     -1.230831   -3.203142   -1.741426
H     -3.645588    1.514557    0.277073
H     -2.809861    3.633135   -0.634920
H      0.990091    1.828274   -1.449553
H      2.685638   -2.041106   -1.274099
H      5.001198   -1.749239   -0.492728
H      5.546263   -0.012185    1.187734
H      3.754050    1.433225    2.102709
H      1.427437    1.152651    1.356022
