24

C     -0.739460   -1.524625    1.222108
C     -0.540948   -0.730600   -0.083429
C      0.887660   -0.937787   -0.649562
C      1.957012   -0.175408    0.154102
C      1.543184    1.262938    0.537548
C      0.279053    1.734414   -0.188303
C     -0.893399    0.784331    0.117284
C     -2.029137    0.998858   -0.833039
O     -2.624991    2.097524   -0.985902
O     -2.389608   -0.144076   -1.513864
C     -1.558970   -1.165226   -1.101974
O     -1.654428   -2.337951   -1.552185
H     -0.523522   -2.602845    1.061932
H     -0.063728   -1.142831    2.016292
H     -1.786750   -1.428669    1.582643
H      0.926631   -0.581295   -1.703673
H      1.144429   -2.019796   -0.670143
H      2.889642   -0.140565   -0.450241
H      2.195187   -0.744957    1.078623
H      2.375793    1.963008    0.308747
H      1.363782    1.312913    1.634352
H      0.477519    1.778611   -1.282537
H      0.022284    2.761703    0.150527
H     -1.257235    0.982333    1.150692
