21

C      2.976725    0.865019   -0.418213
C      3.431827   -0.463305   -0.318432
C      2.523331   -1.510097   -0.103042
C      1.170332   -1.198564    0.008042
C      0.704882    0.111746   -0.088606
C      1.608188    1.161150   -0.303713
C     -0.689395    0.198006    0.052208
C     -1.482509    1.352361    0.008411
C     -2.872128    1.226866    0.172432
C     -3.456850   -0.037130    0.377224
C     -2.658315   -1.189528    0.420233
C     -1.282604   -1.046808    0.255765
S     -0.113152   -2.262968    0.265870
H      3.686868    1.664638   -0.584491
H      4.488664   -0.678404   -0.408351
H      2.866648   -2.533535   -0.025332
H      1.272839    2.186372   -0.382430
H     -1.047024    2.329890   -0.148191
H     -3.498171    2.109151    0.141067
H     -4.528611   -0.120549    0.502233
H     -3.101545   -2.164313    0.577315
