26

C     -4.518499    1.640926   -0.581659
C     -3.649757    0.431506   -0.444561
N     -2.310677    0.576483   -0.243143
C     -1.483326   -0.495721   -0.115338
C     -2.003345   -1.792727   -0.190638
C     -3.373117   -1.966928   -0.397652
C     -4.204813   -0.852652   -0.526323
C     -0.077458   -0.287562    0.095813
C      1.102212   -0.113163    0.272672
C      2.510539    0.094536    0.483455
C      3.053679    1.382955    0.382827
C      4.423017    1.583013    0.587301
C      5.251555    0.498481    0.892265
C      4.711769   -0.787667    0.993303
C      3.342854   -0.991148    0.789370
H     -5.303710    1.630264    0.203387
H     -5.000279    1.644732   -1.582046
H     -3.917010    2.568200   -0.471380
H     -1.357633   -2.656915   -0.090909
H     -3.789613   -2.964116   -0.458573
H     -5.267323   -0.987082   -0.687510
H      2.420181    2.229708    0.146916
H      4.841724    2.578093    0.509330
H      6.310869    0.654580    1.050178
H      5.353837   -1.626378    1.229440
H      2.934323   -1.991419    0.869747
