13

C     -1.726414   -0.426617    0.049109
C     -1.341899    0.906085   -0.109878
C      0.014433    1.249444   -0.149436
C      0.996490    0.246244   -0.028345
C      0.602281   -1.097048    0.131893
C     -0.757918   -1.424974    0.169607
Cl     1.786912   -2.390881    0.287971
C      2.397850    0.592536   -0.068207
N      3.520946    0.870067   -0.100154
Cl     0.450465    2.943764   -0.351610
H     -2.776786   -0.686175    0.078987
H     -2.100344    1.673121   -0.202478
H     -1.066016   -2.455566    0.292542
