25

C      0.386392   -0.166729   -0.561506
C     -0.784206   -0.314309    0.424554
C     -2.096175   -0.677450   -0.296329
C     -3.177349   -1.022924    0.700159
O     -3.713740   -2.161769    0.666611
O     -3.601038   -0.103011    1.657129
N     -2.527552    0.414704   -1.172770
C      1.690578    0.236538    0.150671
C      2.802979    0.494488   -0.882531
N      4.032694    0.968199   -0.248518
O      2.097032   -0.791665    1.019215
H      0.129634    0.612567   -1.312245
H      0.541052   -1.128257   -1.099389
H     -0.911927    0.635301    0.988759
H     -0.543094   -1.119225    1.153283
H     -1.904567   -1.574965   -0.927346
H     -3.199449    0.824107    1.720208
H     -2.765376    1.256435   -0.599300
H     -3.397724    0.119606   -1.673193
H      1.515024    1.185569    0.712638
H      3.020557   -0.439609   -1.445618
H      2.465482    1.260822   -1.614132
H      4.381263    0.236808    0.412593
H      3.819615    1.828070    0.307675
H      1.739896   -0.573302    1.919381
