49

C      1.818327   -0.026331   -2.940504
C      0.914972   -0.435391   -1.765482
C      1.543293   -1.593053   -0.956872
C      2.851941   -1.220004   -0.301505
C      2.863717   -0.528741    0.919368
C      4.074550   -0.174889    1.521321
C      5.296187   -0.514141    0.910446
C      5.281685   -1.204917   -0.306140
C      4.070902   -1.553036   -0.911041
O      6.536587   -0.185239    1.475489
C      6.699541    0.521688    2.701144
N      0.640254    0.722636   -0.887766
C     -0.661459    0.625494   -0.199372
C     -1.777891    1.390775   -0.938535
C     -3.081570    1.267927   -0.178417
C     -3.818857    0.071791   -0.214070
C     -5.013129   -0.059474    0.516763
C     -5.482429    1.032248    1.267520
C     -4.744278    2.222280    1.310711
C     -3.547807    2.336702    0.601882
O     -6.676017    0.925716    1.979701
N     -5.784008   -1.273410    0.461717
C     -5.212894   -2.587006    0.399531
O     -3.980379   -2.771818    0.578793
O     -1.928507    0.886856   -2.240545
H      2.082324   -0.913011   -3.555383
H      1.282490    0.696714   -3.591395
H      2.749712    0.453627   -2.572874
H     -0.029332   -0.817048   -2.215022
H      1.691713   -2.468011   -1.627600
H      0.831181   -1.933054   -0.174810
H      1.934475   -0.265151    1.406798
H      4.049187    0.359588    2.461146
H      6.214135   -1.471042   -0.786080
H      4.084697   -2.083155   -1.854729
H      6.245484   -0.051716    3.536243
H      6.232692    1.526986    2.627525
H      7.781813    0.647976    2.904640
H      0.692237    1.622341   -1.421286
H     -0.543925    1.068921    0.812789
H     -0.962691   -0.434477   -0.044159
H     -1.477092    2.463685   -0.997748
H     -3.469978   -0.745940   -0.830053
H     -5.095666    3.059143    1.899142
H     -2.988404    3.262217    0.657358
H     -7.037740    1.697701    2.528950
H     -6.823125   -1.212032    0.543903
H     -5.856181   -3.441826    0.231851
H     -2.470735    1.550460   -2.743344
