35

C      5.330891   -1.071679    0.362997
C      4.850070    0.327605    0.771186
C      4.911462    1.344526   -0.342788
O      5.572328    1.111082   -1.389983
O      4.282683    2.578591   -0.201876
O      3.547673    0.269622    1.366867
C      2.331247   -0.071097    0.745510
C      2.200104   -0.289083   -0.640569
C      0.957136   -0.620547   -1.188521
C     -0.174516   -0.723818   -0.373926
C     -0.043966   -0.521523    1.010221
C      1.197826   -0.190433    1.558910
O     -1.399322   -1.073430   -0.961743
C     -2.663789   -0.675740   -0.504908
N     -3.725562   -1.496179   -0.723408
C     -4.985700   -1.170908   -0.330154
C     -5.235939    0.056723    0.303556
C     -4.152222    0.914175    0.547018
C     -2.868454    0.559519    0.130356
C     -6.619053    0.404802    0.791859
F     -7.582371   -0.165964   -0.021901
F     -6.779322   -0.069183    2.080406
F     -6.807017    1.776162    0.788945
H      5.239504   -1.763358    1.227028
H      6.399288   -1.034143    0.060793
H      4.739602   -1.481651   -0.479511
H      5.547914    0.685046    1.558048
H      3.769214    2.815071    0.638585
H      3.039621   -0.200824   -1.311197
H      0.870510   -0.787636   -2.254774
H     -0.895489   -0.637507    1.667680
H      1.282729   -0.033979    2.626913
H     -5.789709   -1.871968   -0.512322
H     -4.298652    1.859990    1.053425
H     -2.048718    1.247738    0.289033
