26

C      3.238292    0.270648    0.489844
C      1.957652   -0.575610    0.404100
C      0.709411    0.290131    0.100740
C     -0.578561   -0.573955   -0.011787
C     -1.855549    0.255691   -0.323098
C     -3.035329   -0.665653   -0.490371
O     -3.515576   -1.271316    0.505753
O     -3.581281   -0.868515   -1.754065
N     -2.131762    1.215730    0.750628
O     -0.406388   -1.591317   -0.970409
O      0.917480    0.997211   -1.097960
O      1.790191   -1.260343    1.620908
O      3.174702    1.175386    1.561046
H      3.427222    0.799536   -0.473084
H      4.101874   -0.407618    0.657930
H      2.108570   -1.300684   -0.431488
H      0.586526    0.996346    0.954990
H     -0.741562   -1.067406    0.971708
H     -1.714299    0.809146   -1.279121
H     -4.368470   -1.492310   -1.885778
H     -3.064986    1.655829    0.574713
H     -1.447079    2.001965    0.678991
H     -0.311604   -1.154997   -1.857196
H      0.515237    1.897390   -0.983474
H      1.423404   -2.157576    1.406069
H      2.801887    2.022290    1.201762
