21

C     -1.690531   -1.364579    0.365232
N     -0.928243   -0.105818    0.406688
C     -1.841343    1.022503    0.647861
C     -0.142512    0.093205   -0.836227
C      1.359367   -0.099182   -0.565237
C      1.849252    0.925744    0.426205
O      1.790482    0.692695    1.663075
O      2.318612    2.160973   -0.011236
N      1.630362   -1.453888   -0.079968
H     -2.449853   -1.348204   -0.448363
H     -2.203530   -1.532705    1.336561
H     -1.006405   -2.224079    0.203091
H     -2.566588    1.137038   -0.188584
H     -1.260084    1.963388    0.757925
H     -2.399935    0.870386    1.596618
H     -0.456930   -0.605496   -1.645637
H     -0.282917    1.115290   -1.259479
H      1.906032    0.051423   -1.523934
H      2.350963    2.391312   -0.997110
H      2.664549   -1.558940    0.040059
H      1.359252   -2.131063   -0.829950
