36

C     -1.864002    3.291665    2.128030
O     -1.701822    2.466196    0.981173
C     -0.694021    1.502029    0.883127
O      0.106230    1.322879    1.841930
C     -0.621989    0.649670   -0.364659
C      0.811752    0.232934   -0.800852
C      1.466812   -0.862081    0.087244
C      3.003284   -0.808730    0.038531
C      3.498346   -0.301674   -1.317329
C      2.935097    1.101446   -1.639827
N      1.684681    1.414887   -0.921030
C     -1.559383   -0.545112   -0.294756
C     -2.229850   -0.965474   -1.458634
C     -3.066303   -2.085256   -1.431794
C     -3.235014   -2.805537   -0.247626
C     -2.563808   -2.410243    0.911178
C     -1.726099   -1.291219    0.890328
H     -2.063328    2.664256    3.022546
H     -2.724383    3.973229    1.967884
H     -0.948740    3.899157    2.291586
H     -0.996377    1.312207   -1.177912
H      0.698067   -0.206386   -1.820356
H      1.126816   -1.859346   -0.269288
H      1.154567   -0.776237    1.146434
H      3.377760   -0.130044    0.836395
H      3.418997   -1.820673    0.234755
H      4.609371   -0.270106   -1.320888
H      3.180523   -1.018606   -2.106311
H      2.753839    1.180312   -2.733377
H      3.700019    1.867972   -1.384588
H      1.933213    1.763077    0.034623
H     -2.102397   -0.427249   -2.389773
H     -3.580670   -2.397234   -2.331570
H     -3.881722   -3.673225   -0.229284
H     -2.689340   -2.974068    1.826529
H     -1.210127   -1.013417    1.799360
