57

C      5.515316    2.168368   -1.216960
C      4.109641    1.582380   -1.112877
N      4.027916    0.601679   -0.008815
C      4.681798   -0.692718   -0.317367
C      5.874198   -0.892416    0.608999
C      2.651874    0.443077    0.514753
C      1.631768    0.008380   -0.549927
O      0.385735   -0.260482    0.081760
C     -0.750531   -0.669411   -0.624836
O     -0.697175   -0.794778   -1.880259
C     -2.060247   -0.899349    0.122159
C     -2.961676   -1.925687   -0.642397
C     -2.366685   -3.341458   -0.686576
C     -2.094844   -3.866671    0.721850
C     -1.171415   -2.914614    1.479795
C     -1.764300   -1.498339    1.537061
C     -2.837808    0.468160    0.275436
C     -3.410796    1.004361   -1.074183
C     -3.691973    2.520607   -1.081118
C     -4.049817    3.034553    0.313676
C     -2.895410    2.813326    1.308287
C     -2.020614    1.586560    0.975029
H      5.828071    2.586099   -0.236490
H      5.524027    2.982693   -1.971854
H      6.241691    1.391702   -1.534152
H      3.822945    1.118812   -2.083241
H      3.414999    2.431623   -0.925226
H      3.996141   -1.556700   -0.172439
H      5.035486   -0.743552   -1.371253
H      6.612329   -0.074889    0.471414
H      6.367370   -1.861221    0.382396
H      5.535442   -0.901260    1.666777
H      2.654020   -0.297470    1.345370
H      2.317351    1.405209    0.960686
H      1.490295    0.820800   -1.294475
H      1.978292   -0.905617   -1.076151
H     -3.959257   -1.980156   -0.151819
H     -3.136377   -1.601512   -1.690359
H     -1.424562   -3.344000   -1.276393
H     -3.083269   -4.021993   -1.195059
H     -1.616865   -4.867699    0.655348
H     -3.054274   -3.979218    1.273409
H     -1.031623   -3.293482    2.515254
H     -0.172336   -2.891555    0.992210
H     -1.048453   -0.869708    2.104066
H     -2.703550   -1.535763    2.132602
H     -3.715981    0.266453    0.931348
H     -2.715069    0.792533   -1.911959
H     -4.361917    0.471090   -1.293083
H     -2.792607    3.064684   -1.445904
H     -4.524183    2.741508   -1.784107
H     -4.292333    4.117957    0.261012
H     -4.959352    2.503883    0.672412
H     -2.247286    3.716683    1.327552
H     -3.325042    2.694785    2.327107
H     -1.191536    1.909204    0.307746
H     -1.567542    1.234551    1.921691
