55

C      2.328366   -4.889476    0.528466
C      1.406812   -3.999091   -0.233139
O      1.159470   -4.240127   -1.446039
O      0.825260   -2.904386    0.415845
C      0.007186   -1.930036   -0.239668
C      0.902394   -0.993712   -1.104374
S     -0.074367    0.227904   -2.064922
C     -0.218977    1.428495   -0.743364
C      0.499350    2.628408   -0.807603
C      0.380533    3.570109    0.217853
C     -0.453297    3.313075    1.309506
C     -1.161617    2.109826    1.381809
C     -1.043535    1.159091    0.354876
N     -1.690803   -0.117086    0.461492
C     -0.877658   -1.252983    0.789230
O     -0.991021   -1.768544    1.934986
C     -3.143958   -0.197285    0.657260
C     -3.884668    0.476491   -0.517578
N     -5.360561    0.393728   -0.438946
C     -5.867064   -0.984114   -0.538882
C     -5.911091    1.079987    0.740204
C      2.115830   -0.366134   -0.425028
C      2.170986   -0.093585    0.956417
C      3.286119    0.538522    1.512724
C      4.365094    0.918679    0.710248
C      4.316353    0.656866   -0.670020
C      3.202026    0.025582   -1.228237
O      5.458539    1.552298    1.318739
C      6.623153    1.988087    0.624897
H      3.206999   -4.303973    0.870482
H      2.678287   -5.729546   -0.108380
H      1.798195   -5.301782    1.411949
H     -0.691353   -2.459468   -0.925397
H      1.317072   -1.660667   -1.890916
H      1.147240    2.831788   -1.650763
H      0.935203    4.498142    0.167200
H     -0.540636    4.040627    2.106017
H     -1.777654    1.908783    2.248302
H     -3.446855   -1.264082    0.714711
H     -3.409943    0.284501    1.620236
H     -3.590097    1.547120   -0.571967
H     -3.542146    0.014970   -1.470001
H     -6.960067   -0.963781   -0.735930
H     -5.386837   -1.516797   -1.387677
H     -5.692199   -1.554783    0.398618
H     -5.717715    0.508273    1.673673
H     -7.009330    1.198490    0.622471
H     -5.475397    2.097739    0.837435
H      1.362970   -0.355342    1.618091
H      3.309524    0.739105    2.576493
H      5.130850    0.942185   -1.321721
H      3.181989   -0.151221   -2.296751
H      7.126024    1.123326    0.142433
H      7.325813    2.448494    1.349354
H      6.351207    2.747312   -0.138600
