19

C     -1.221412    0.661419    0.529657
C     -2.339784    0.545130   -0.458533
O     -2.261005    1.125614   -1.573027
O     -3.464444   -0.211157   -0.153959
N      0.002942    0.022930   -0.002709
C      1.204910    0.559422    0.673181
C      1.571269    1.891717    0.097101
O      1.566042    2.920946    0.822304
O      1.917090    1.996058   -1.244134
C     -0.067959   -1.447279    0.151036
C      0.857061   -2.116258   -0.817272
O      0.653357   -2.018753   -2.055925
O      1.948946   -2.839114   -0.353741
H     -1.519082    0.208133    1.502666
H     -1.059878    1.747057    0.710339
H      1.044309    0.638219    1.773219
H      2.080843   -0.107527    0.517039
H      0.178852   -1.753597    1.193182
H     -1.092057   -1.822959   -0.066522
