24

C      4.255399   -0.914447    0.010674
N      2.938709   -0.309262    0.165013
C      2.033622   -0.723463    1.195846
O      2.353678   -1.649777    1.989370
C      0.684718   -0.090021    1.307128
S     -0.442216   -0.866334    0.103731
P     -2.114314    0.362382    0.591917
S     -2.672607   -0.041041    2.179041
O     -3.402322    0.165472   -0.516934
C     -3.527873   -1.196054   -0.846015
O     -1.637065    1.999769    0.601062
C     -1.365085    2.387297   -0.722487
H      4.787190   -0.447557   -0.845040
H      4.149236   -2.002607   -0.183080
H      4.852414   -0.757417    0.933594
H      2.649225    0.444319   -0.498711
H      0.774282    0.996733    1.100122
H      0.291283   -0.226210    2.336745
H     -3.609762   -1.841033    0.056937
H     -4.461579   -1.330006   -1.429468
H     -2.687050   -1.523503   -1.493467
H     -2.282211    2.350630   -1.349892
H     -0.554128    1.772931   -1.171679
H     -1.013541    3.439200   -0.714148
