24

C      3.360022    0.119214   -0.695241
C      2.725069   -0.011544    0.688989
C      1.333773   -0.662335    0.646841
C      0.268621    0.260551    0.032030
C     -1.134435   -0.377637    0.082456
C     -2.166182    0.508089   -0.640364
C     -3.516646   -0.144902   -0.661664
O     -3.813373   -0.941944   -1.590197
O     -4.433866    0.088401    0.358962
O     -1.528869   -0.617444    1.411993
H      2.805138    0.852912   -1.315522
H      3.376860   -0.864717   -1.210351
H      4.405012    0.479192   -0.588565
H      3.389105   -0.644490    1.316846
H      2.665332    0.989861    1.168068
H      1.042338   -0.907116    1.691298
H      1.381877   -1.617082    0.078458
H      0.256503    1.231388    0.574893
H      0.528698    0.460976   -1.029233
H     -1.088546   -1.355469   -0.446714
H     -2.240523    1.497098   -0.138243
H     -1.837603    0.687388   -1.687591
H     -4.216001    0.710495    1.128149
H     -1.562305    0.259115    1.877770
