47

C      0.976704   -0.023801   -1.885728
C      0.338039   -0.899455   -0.788696
C     -0.278155   -0.009202    0.344761
C      0.298083   -0.564469    1.665734
C      1.624039    0.113869    1.955252
O      1.694382    1.016073    2.831909
C      2.822941   -0.273217    1.142598
C      2.689213   -1.253461    0.213510
C      1.316985   -1.882555   -0.060116
C      0.651639   -1.942200    1.267812
O      0.584426   -2.924446    1.991799
O      1.389742   -3.199575   -0.594328
C      1.767344   -3.223476   -1.953884
C      4.147658    0.419115    1.331798
C      4.376447    1.433116    0.245726
C      3.652949    2.553873    0.165655
C     -1.800735   -0.025650    0.325165
C     -2.509454    1.157320    0.047391
C     -3.918084    1.163208    0.013305
C     -4.616357   -0.027241    0.255178
C     -3.916960   -1.209332    0.524878
C     -2.521952   -1.211096    0.557401
O     -6.009935   -0.027376    0.223636
O     -4.655332    2.326862   -0.257288
C     -4.080912    3.602618   -0.522089
H      1.773899    0.628081   -1.471544
H      1.405006   -0.637088   -2.700867
H      0.197788    0.629260   -2.333564
H     -0.463185   -1.503382   -1.271653
H      0.059934    1.047908    0.231214
H     -0.402986   -0.521046    2.528581
H      3.549980   -1.558909   -0.367031
H      0.907055   -2.956076   -2.602190
H      2.057946   -4.261369   -2.215282
H      2.644096   -2.579002   -2.171783
H      4.965041   -0.333744    1.302437
H      4.201658    0.914767    2.324659
H      5.155534    1.252007   -0.488811
H      2.869292    2.766438    0.886117
H      3.843073    3.266883   -0.629771
H     -1.960330    2.069581   -0.142191
H     -4.455400   -2.130663    0.707373
H     -2.008545   -2.141278    0.758483
H     -6.544388   -0.871411    0.393623
H     -3.442031    3.552996   -1.429078
H     -4.893732    4.336021   -0.700293
H     -3.482421    3.940526    0.350190
