37

C     -4.918803    0.433380   -0.001002
C     -3.927608    0.289805    1.153725
C     -3.256249   -1.092802    1.195316
C     -2.301257   -1.378864    0.020804
C     -1.047564   -0.478051    0.008613
C     -1.120841    0.607133   -1.080068
C      0.071137    1.571318   -1.022741
C      1.353153    0.889524   -1.387478
O      1.671437    0.759315   -2.601092
O      2.164069    0.366839   -0.376737
C      3.380151   -0.324082   -0.645300
C      4.024177   -0.795863    0.663637
C      4.493636    0.386273    1.526570
O      3.392929    1.118366    1.990834
O      5.122851   -1.612616    0.352584
H     -5.672991   -0.381341    0.031904
H     -4.395893    0.411249   -0.978694
H     -5.446668    1.406352    0.085697
H     -4.485649    0.431000    2.104616
H     -3.165741    1.094991    1.104019
H     -2.691558   -1.185740    2.148699
H     -4.044542   -1.876894    1.213634
H     -1.964440   -2.433470    0.127444
H     -2.846198   -1.333594   -0.946144
H     -0.160689   -1.117658   -0.193055
H     -0.888798   -0.008832    1.004345
H     -2.047969    1.202553   -0.952308
H     -1.165744    0.129579   -2.083830
H     -0.106836    2.408276   -1.732281
H      0.157054    2.010251   -0.005127
H      3.160626   -1.210270   -1.280525
H      4.079116    0.341999   -1.197675
H      3.267884   -1.387508    1.231892
H      5.063996   -0.004344    2.398932
H      5.167864    1.044853    0.933581
H      3.765613    1.870243    2.520591
H      5.320346   -2.151371    1.163106
