76

C     -0.485875   -5.977573    0.016554
C      0.146157   -5.096606    1.100298
C      0.684737   -3.792891    0.500815
N     -0.358160   -3.140148   -0.300283
C     -1.045193   -3.923648   -1.332267
C     -1.592156   -5.219175   -0.726957
C     -0.670751   -1.745924   -0.135319
N     -1.968699   -1.371215    0.011903
C     -2.331614   -0.066518    0.156460
N     -1.371242    0.898880    0.144218
C     -0.059043    0.585162   -0.018984
C      0.325189   -0.758229   -0.155162
N      1.635594   -1.072603   -0.320466
C      2.594640   -0.109229   -0.341440
N      2.238096    1.195514   -0.196452
C      0.939838    1.571815   -0.041861
N      0.626810    2.963362    0.136217
C     -0.253887    3.657260   -0.811711
C     -1.215064    4.609882   -0.076892
C     -0.613564    5.237967    1.199868
C      0.915757    5.192036    1.206100
C      1.395250    3.735691    1.125755
N      3.979042   -0.467282   -0.515935
C      4.458341   -1.796208   -0.101098
C      4.316764   -1.995840    1.415395
O      5.046440   -1.025015    2.119271
C      4.880624    0.437532   -1.244967
C      5.820305    1.188471   -0.294678
O      5.102260    1.993355    0.600549
N     -3.722810    0.283463    0.326087
C     -4.099315    1.615466    0.826345
C     -4.620664    2.507217   -0.299814
O     -3.711127    2.526716   -1.364431
C     -4.767988   -0.732632    0.115185
C     -4.899234   -1.111144   -1.364705
O     -5.417853   -0.043612   -2.107430
H      0.294381   -6.298940   -0.707196
H     -0.911204   -6.890666    0.485522
H     -0.615658   -4.857591    1.875805
H      0.977137   -5.648796    1.588367
H      1.560608   -4.015319   -0.147000
H      1.017860   -3.129604    1.329875
H     -1.883682   -3.347403   -1.779564
H     -0.325921   -4.166076   -2.145185
H     -2.419761   -4.978345   -0.024564
H     -2.001148   -5.858549   -1.536824
H      0.375910    4.244217   -1.515620
H     -0.840883    2.937634   -1.421248
H     -2.136923    4.057151    0.202379
H     -1.520450    5.417154   -0.780445
H     -0.953288    6.292116    1.295480
H     -0.989646    4.683135    2.089092
H      1.308523    5.768663    0.338080
H      1.301971    5.660982    2.138515
H      2.475708    3.719103    0.861916
H      1.267829    3.264080    2.126642
H      5.532795   -1.924565   -0.371978
H      3.881277   -2.580514   -0.633835
H      3.251994   -1.924571    1.711815
H      4.667401   -3.018173    1.692808
H      6.001976   -1.281697    2.048996
H      4.302281    1.171874   -1.849400
H      5.486250   -0.152073   -1.967593
H      6.523299    1.816589   -0.891530
H      6.432039    0.461533    0.279748
H      4.743569    2.753454    0.067487
H     -3.235994    2.112561    1.321096
H     -4.885734    1.516160    1.605987
H     -5.605828    2.130477   -0.647033
H     -4.762131    3.537210    0.095803
H     -4.066140    3.184554   -2.019277
H     -5.752718   -0.367272    0.477761
H     -4.527209   -1.639122    0.710268
H     -3.913905   -1.396953   -1.782802
H     -5.565333   -1.997175   -1.458312
H     -6.390859   -0.009544   -1.914200
