36

C      3.204520   -1.242294    2.271380
C      3.531758   -1.157069    0.783483
N      2.622234   -0.228499    0.094667
C      3.011374    1.188885    0.011164
C      3.864311    1.448829   -1.229011
C      1.395909   -0.707163   -0.512573
S      0.681327    0.108483   -1.742362
S      0.703191   -2.307494   -0.080156
S     -0.533994   -1.506440    1.464526
C     -2.007748   -1.506074    0.437573
S     -2.872153   -2.892204    0.337402
N     -2.457953   -0.301821   -0.220097
C     -2.852461   -0.356644   -1.638295
C     -4.349226   -0.626120   -1.797745
C     -2.211645    1.005626    0.414301
C     -3.463205    1.880218    0.410268
H      2.190207   -1.659918    2.428660
H      3.257183   -0.234483    2.735778
H      3.939222   -1.907375    2.773709
H      3.487813   -2.165648    0.321928
H      4.581225   -0.808210    0.678237
H      2.112154    1.842576    0.001716
H      3.599545    1.474394    0.910455
H      3.286457    1.241976   -2.152447
H      4.767086    0.800948   -1.218574
H      4.188369    2.511820   -1.243865
H     -2.274138   -1.146828   -2.166981
H     -2.612010    0.604667   -2.139526
H     -4.626849   -0.524465   -2.868025
H     -4.605026   -1.654076   -1.475919
H     -4.947299    0.097307   -1.209844
H     -1.907946    0.877759    1.476438
H     -1.388399    1.532372   -0.113758
H     -3.736368    2.169473   -0.626358
H     -3.267213    2.808012    0.987434
H     -4.310253    1.339479    0.882163
