28

C      3.825658    1.005929   -1.979555
C      3.311063   -0.286840   -1.422850
O      3.837375   -1.340196   -1.749495
C      2.166747   -0.294552   -0.447022
C      0.936451   -0.973562   -1.056149
C     -0.212330   -0.957909   -0.082856
C     -1.092648    0.135103   -0.044538
C     -2.150308    0.171925    0.886490
C     -2.309965   -0.897944    1.786761
C     -1.423083   -1.978614    1.754882
C     -0.377343   -2.008116    0.830970
O     -3.343591   -0.903347    2.723297
O     -3.051226    1.247284    0.945582
C     -3.001791    2.390119    0.097570
H      4.213333    1.638818   -1.154146
H      3.002514    1.542410   -2.496283
H      4.645234    0.822057   -2.706720
H      2.480676   -0.833718    0.473310
H      1.907872    0.749246   -0.162233
H      0.644081   -0.447324   -1.991880
H      1.182069   -2.023367   -1.330614
H     -0.945074    0.950588   -0.740008
H     -1.543769   -2.797807    2.452423
H      0.304804   -2.849377    0.828454
H     -4.014198   -0.147350    2.791790
H     -2.039345    2.926697    0.235477
H     -3.831712    3.075730    0.364929
H     -3.121493    2.084118   -0.963207
