18

C      3.525206    0.018155    0.586790
C      2.167714   -0.237421    0.026136
O      2.021926   -1.111170   -0.870994
O      1.098112    0.573763    0.426546
C     -0.258134    0.305799    0.187085
C     -1.147439    1.385648    0.107947
C     -2.509677    1.167010   -0.119992
C     -2.995693   -0.135544   -0.258512
C     -2.121106   -1.220933   -0.161483
C     -0.757771   -1.005725    0.065414
H      4.097029   -0.931581    0.652174
H      3.437876    0.454131    1.603978
H      4.068558    0.729277   -0.069425
H     -0.779201    2.398048    0.215664
H     -3.188434    2.007382   -0.187536
H     -4.050547   -0.304125   -0.432705
H     -2.501087   -2.230287   -0.253228
H     -0.107333   -1.862428    0.174546
