27

C     -4.085134    1.429837    0.721799
C     -3.239240    0.777940   -0.318112
O     -2.969328    1.398835   -1.381990
O     -2.799830   -0.536046   -0.123097
C     -1.949239   -1.224803   -1.039166
C     -0.509189   -0.706108   -0.957959
C      0.091962   -0.916671    0.436907
C      1.508984   -0.411425    0.482562
C      1.772066    0.931714    0.800465
C      3.086704    1.408347    0.810674
C      4.144945    0.551789    0.494706
C      3.889996   -0.781992    0.163846
C      2.576834   -1.262775    0.152362
H     -3.853959    2.514584    0.776973
H     -5.156309    1.295240    0.465010
H     -3.886973    0.970831    1.713014
H     -1.963668   -2.308054   -0.793699
H     -2.335018   -1.110837   -2.075612
H      0.104684   -1.250148   -1.708909
H     -0.487270    0.374442   -1.217293
H     -0.518269   -0.381310    1.197068
H      0.068984   -1.998125    0.696074
H      0.960041    1.607941    1.037978
H      3.284751    2.442756    1.060170
H      5.161753    0.922605    0.501809
H      4.709750   -1.442647   -0.087180
H      2.391972   -2.295920   -0.114786
