26

C     -2.473516   -1.202437    0.172073
C     -2.338148    0.197932   -0.378730
C     -1.241704    0.954367   -0.150608
C     -0.027505    0.487901    0.612866
C      0.976217   -0.190984   -0.325691
C      2.192103   -0.664776    0.440207
C      2.204467   -1.907658    0.934170
C      3.356819    0.219548    0.705438
C      3.392204    1.517497    0.402015
C     -3.459953    0.786662   -1.194740
H     -2.463144   -1.175281    1.281722
H     -1.643571   -1.842326   -0.190676
H     -3.426552   -1.673812   -0.145757
H     -1.202875    1.960492   -0.561390
H     -0.312283   -0.195883    1.440403
H      0.450407    1.376531    1.077778
H      0.490990   -1.051486   -0.835738
H      1.278474    0.507158   -1.134789
H      1.365543   -2.576357    0.784413
H      3.049331   -2.277654    1.502266
H      4.231262   -0.204078    1.186505
H      2.560003    2.029612   -0.058672
H      4.277369    2.096391    0.631725
H     -4.305766    0.076591   -1.304949
H     -3.840793    1.706042   -0.701448
H     -3.089377    1.046006   -2.209128
