23

C     -2.820846    1.432129    0.753809
C     -1.944550    0.299123    0.204212
C     -2.425787   -1.049004    0.762004
C     -0.460863    0.566731    0.542854
C      0.496121   -0.383941   -0.180804
O      1.838591    0.029987    0.052634
C      2.939260   -0.645652   -0.481636
O      2.779340   -1.652344   -1.224245
C      4.315091   -0.140010   -0.209515
H     -2.735756    1.491530    1.860389
H     -3.885094    1.261707    0.484083
H     -2.510236    2.405321    0.317140
H     -2.066812    0.285573   -0.901727
H     -2.249869   -1.106419    1.857673
H     -3.512012   -1.179300    0.568329
H     -1.899483   -1.889371    0.264598
H     -0.298917    0.487283    1.640517
H     -0.201916    1.605146    0.238754
H      0.290442   -0.365539   -1.273518
H      0.365971   -1.419138    0.200019
H      5.018390   -0.991610   -0.094334
H      4.321169    0.458642    0.725396
H      4.647766    0.499155   -1.053513
