26

C      3.494021   -0.305736    0.028130
C      2.696223   -1.453724    0.065200
C      1.297834   -1.342191    0.054333
C      0.702535   -0.061473    0.005670
C      1.511904    1.096333   -0.031690
C      2.908406    0.963306   -0.020069
C      0.909663    2.362879   -0.079886
C     -0.484099    2.484836   -0.091110
C     -1.297834    1.342192   -0.054329
C     -2.696222    1.453727   -0.065198
C     -3.494021    0.305736   -0.028136
C     -2.908406   -0.963305    0.020065
C     -1.511904   -1.096332    0.031691
C     -0.702535    0.061474   -0.005658
C     -0.909661   -2.362877    0.079876
C      0.484097   -2.484835    0.091107
H      4.572252   -0.400092    0.036804
H      3.171685   -2.426615    0.102257
H      3.546125    1.838795   -0.048176
H      1.517084    3.259659   -0.108933
H     -0.926010    3.473436   -0.128572
H     -3.171676    2.426622   -0.102270
H     -4.572253    0.400078   -0.036807
H     -3.546129   -1.838788    0.048199
H     -1.517068   -3.259666    0.108901
H      0.925990   -3.473440    0.128602
