57

C      7.902511   -1.634865    0.063248
O      7.220273   -0.425718   -0.252080
C      5.832047   -0.247378   -0.146853
C      5.289957    1.012429   -0.491744
C      3.895608    1.226530   -0.396196
C      3.087611    0.177270    0.036763
C      3.605371   -1.042662    0.373610
C      4.976309   -1.284651    0.292823
C      2.548757   -1.998437    0.828863
C      1.213702   -1.207657    0.687610
C      1.659288    0.152096    0.228181
O      0.908773    1.156030    0.102677
C      0.265904   -1.894067   -0.323784
C     -1.127975   -1.234052   -0.446874
C     -1.892969   -1.224231    0.899545
C     -3.416302   -1.096703    0.713308
N     -3.721253   -0.422604   -0.564177
C     -3.346819   -1.286287   -1.707533
C     -1.964079   -1.951579   -1.521966
C     -5.147355   -0.049059   -0.647077
C     -5.416998    1.180796    0.179722
C     -4.796308    2.397273   -0.149864
C     -5.034593    3.540909    0.618447
C     -5.892693    3.477873    1.719946
C     -6.514297    2.271604    2.053758
C     -6.278339    1.125151    1.288489
O      6.167599    2.020330   -0.920899
C      5.764465    3.335064   -1.288587
H      8.989283   -1.493398   -0.107959
H      7.543226   -2.457953   -0.590511
H      7.742108   -1.895928    1.130526
H      3.447257    2.177295   -0.650143
H      5.359174   -2.257638    0.568025
H      2.576412   -2.915160    0.200019
H      2.727720   -2.274775    1.890322
H      0.734243   -1.125987    1.686329
H      0.754581   -1.902050   -1.323995
H      0.128544   -2.954897   -0.016911
H     -0.997584   -0.184841   -0.788357
H     -1.532403   -0.365851    1.507447
H     -1.685232   -2.154564    1.472768
H     -3.883453   -2.108269    0.737075
H     -3.824708   -0.520746    1.572653
H     -4.108995   -2.083224   -1.869329
H     -3.314723   -0.659954   -2.626108
H     -1.422239   -1.948596   -2.493321
H     -2.108660   -3.013693   -1.222458
H     -5.422922    0.196228   -1.697730
H     -5.797379   -0.898574   -0.334386
H     -4.126923    2.456521   -0.998785
H     -4.552099    4.475024    0.361606
H     -6.075475    4.363546    2.314712
H     -7.178517    2.224257    2.907090
H     -6.763985    0.196935    1.562295
H      5.273394    3.838191   -0.429123
H      5.070825    3.293496   -2.155014
H      6.660339    3.921200   -1.578365
