58

C     -8.939030   -0.680694   -0.399425
O     -8.027837    0.384339   -0.650978
C     -6.635819    0.303812   -0.480444
C     -5.868981    1.441174   -0.770245
C     -4.472779    1.396680   -0.614815
C     -3.844829    0.229973   -0.172504
C     -4.603904   -0.921792    0.129136
C     -6.003308   -0.873943   -0.033253
C     -3.902766   -2.069055    0.575767
N     -2.548710   -2.016496    0.685024
C     -1.836068   -0.898481    0.385402
N     -2.494826    0.211546   -0.037157
N     -0.396844   -0.889008    0.520918
C      0.337324   -2.145569    0.736888
C      1.537439   -1.918288    1.657838
N      2.311066   -0.755576    1.208856
C      1.575863    0.501432    1.022458
C      0.382520    0.282788    0.092477
C      3.747373   -0.764304    1.343683
O      4.289821   -1.512996    2.202411
C      4.627515    0.088976    0.470789
C      5.152697    1.314068    1.244281
O      6.139834    1.997956    0.468253
C      7.078700    1.290043   -0.288662
C      8.201357    1.931850   -0.820536
C      9.143661    1.195498   -1.547726
C      8.961540   -0.179053   -1.744049
C      7.830533   -0.818823   -1.224040
C      6.881820   -0.080533   -0.510069
O      5.727937   -0.691123   -0.008659
N     -4.557884   -3.295012    0.926791
O     -6.532613    2.597067   -1.212114
C     -5.887055    3.822309   -1.543333
H     -9.969911   -0.334210   -0.617380
H     -8.885315   -0.985806    0.666971
H     -8.708525   -1.544462   -1.058149
H     -3.864613    2.263860   -0.836585
H     -6.612036   -1.735780    0.175778
H     -0.307247   -2.921504    1.201281
H      0.690635   -2.532332   -0.243588
H      1.183808   -1.744619    2.697498
H      2.163480   -2.837509    1.649906
H      1.213182    0.858945    2.010679
H      2.215222    1.297422    0.592356
H     -0.232302    1.207741    0.103818
H      0.745372    0.119897   -0.945553
H      4.056278    0.440281   -0.415162
H      4.325315    2.014274    1.482635
H      5.619421    0.984306    2.198150
H      8.349421    2.992025   -0.660051
H     10.017223    1.688316   -1.954490
H      9.693986   -0.746661   -2.303254
H      7.685485   -1.879106   -1.386427
H     -3.981905   -4.115405    1.219616
H     -5.591129   -3.417640    0.945167
H     -6.651859    4.560875   -1.859388
H     -5.176895    3.665142   -2.382439
H     -5.350839    4.223186   -0.657390
