31

C     -3.969382   -0.645607   -1.877971
C     -3.909863    0.565737   -1.183227
C     -3.047953    0.705713   -0.090856
C     -2.247630   -0.372802    0.320751
C     -2.300183   -1.581702   -0.392660
C     -3.163381   -1.717564   -1.484506
C     -1.286186   -0.210310    1.466825
N      0.011448    0.260501    0.985118
C      1.109229    0.474946    1.883327
O      0.957158    0.285285    3.120712
C      2.435794    0.967206    1.377710
N      2.827189    0.261810    0.154823
C      3.378123   -0.964370    0.118454
C      3.643574   -1.283388   -1.193411
N      3.259981   -0.268431   -1.992421
C      2.759744    0.654432   -1.142255
N      2.220322    1.902481   -1.605239
O      2.412492    2.249892   -2.788254
O      1.361981    2.645737   -0.830460
H     -4.635707   -0.751788   -2.724249
H     -4.528451    1.397807   -1.493851
H     -3.002742    1.653109    0.431945
H     -1.672303   -2.415925   -0.104892
H     -3.204230   -2.652499   -2.028289
H     -1.693216    0.516732    2.203023
H     -1.155821   -1.182520    1.990452
H      0.148437    0.433433   -0.035894
H      2.404457    2.062462    1.223368
H      3.210872    0.790925    2.155903
H      3.583091   -1.580105    0.984960
H      4.093155   -2.201195   -1.547592
