35

C      1.009981   -2.326261   -0.548037
C     -0.110952   -1.315458   -0.557834
C     -1.452899   -1.710181   -0.752878
N     -2.426971   -0.764979   -0.818339
C     -2.152618    0.558272   -0.677265
N     -0.873155    0.952145   -0.445663
C      0.144676    0.058605   -0.358970
O      1.430479    0.540210   -0.092591
C      2.162476    0.186059    1.048237
O      1.613182   -0.473685    1.974052
N      3.535784    0.592723    1.170469
C      4.156122    1.356694    0.085948
C      4.299427    0.231713    2.367946
N     -3.210080    1.533160   -0.760556
C     -2.900959    2.957201   -0.599726
C     -4.586882    1.093468   -1.006346
C     -1.842880   -3.148653   -0.929835
H      1.982198   -1.855864   -0.802858
H      1.081526   -2.794030    0.455813
H      0.836120   -3.117628   -1.305933
H      3.605561    2.309594   -0.062693
H      4.123529    0.765667   -0.853752
H      5.216540    1.598549    0.308312
H      5.342161    0.609599    2.319291
H      3.813414    0.666713    3.266690
H      4.334269   -0.873555    2.470132
H     -2.453538    3.132268    0.401486
H     -2.180471    3.274534   -1.382952
H     -3.809824    3.588452   -0.688457
H     -5.291815    1.950120   -1.046379
H     -4.640221    0.554790   -1.976007
H     -4.913585    0.413244   -0.191595
H     -2.946605   -3.261156   -0.874120
H     -1.392025   -3.771413   -0.128713
H     -1.501964   -3.510919   -1.922107
