31

C      4.535744   -0.382178   -1.392228
C      3.785806   -1.527344   -1.109914
C      2.756373   -1.475593   -0.164868
C      2.478828   -0.277232    0.513256
C      3.224765    0.874100    0.211702
C      4.253919    0.818022   -0.733639
C      1.342986   -0.209951    1.490715
O      0.141364    0.080574    0.786741
C     -1.106600    0.154230    1.412741
O     -1.196225    0.018668    2.664357
C     -2.318703    0.445524    0.613740
C     -3.325542    1.239246    1.194658
C     -4.437138    1.638302    0.451749
C     -4.560774    1.254163   -0.881430
C     -3.585022    0.449833   -1.471139
C     -2.466834    0.017248   -0.734092
C     -1.527288   -0.928615   -1.379129
O     -1.292481   -0.842026   -2.614773
O     -0.939353   -1.953105   -0.642107
H      5.331237   -0.423413   -2.124989
H      3.999395   -2.454213   -1.626401
H      2.175718   -2.367215    0.037123
H      3.008981    1.813147    0.706261
H      4.829905    1.706232   -0.959046
H      1.241507   -1.182103    2.021446
H      1.532508    0.579409    2.250750
H     -3.236675    1.579415    2.219341
H     -5.198154    2.258320    0.907914
H     -5.421555    1.569814   -1.456818
H     -3.720838    0.138064   -2.499739
H     -0.305854   -2.611324   -1.079725
