32

C     -2.988918   -2.278493   -1.447719
N     -2.252851   -1.215175   -0.750573
C     -1.007367   -0.849184   -1.157782
C     -0.317053    0.158110   -0.570990
C     -0.877634    0.863246    0.491060
O     -0.252602    1.812122    1.037206
N     -2.134003    0.502511    0.923005
C     -2.829557   -0.508548    0.281712
O     -4.009042   -0.784956    0.641721
C     -2.773350    1.250197    2.019067
N      0.872412    0.285931   -1.193122
C      0.853019   -0.677171   -2.148099
N     -0.296176   -1.398517   -2.161746
C      1.993438    1.188887   -0.915623
C      3.083524    0.486546   -0.082828
C      2.600598    0.134565    1.335850
O      3.634740   -0.462234    2.070735
O      4.237166    1.287762   -0.022804
H     -3.657728   -1.828571   -2.211250
H     -2.296438   -2.989484   -1.946778
H     -3.597506   -2.869432   -0.730255
H     -2.019875    1.640915    2.735906
H     -3.453415    0.597361    2.606908
H     -3.353396    2.099696    1.601141
H      1.672739   -0.859520   -2.831201
H      1.648494    2.114375   -0.412974
H      2.438769    1.509093   -1.883021
H      3.358237   -0.458741   -0.599885
H      1.725569   -0.552038    1.290740
H      2.281812    1.058095    1.864020
H      3.725344   -1.390807    1.731031
H      3.991047    2.133458    0.436551
