92

C     -3.790941   -3.636028    1.334126
C     -3.542944   -2.402830    0.513495
C     -2.576046   -2.225410   -0.470865
C     -1.535231   -3.215999   -0.912106
C     -0.158426   -2.757180   -0.511158
C      1.024583   -3.070009   -1.163964
C      2.056484   -2.565791   -0.377711
C      1.446284   -1.979176    0.726831
N      0.108421   -2.107244    0.639738
C      2.120434   -1.322942    1.898703
C      1.936367    0.170354    1.845043
C      2.884307    1.129266    1.494593
C      2.245642    2.361236    1.581730
C      0.940866    2.098445    1.978801
N      0.766744    0.772686    2.137735
C     -0.182212    3.085254    2.120978
C     -1.172756    2.904314    0.999073
C     -1.176077    3.545615   -0.237003
C     -2.209339    2.973631   -0.971747
C     -2.782028    2.008113   -0.156933
N     -2.154848    1.980580    1.036023
C     -3.941100    1.118215   -0.511285
C     -3.595175   -0.321006   -0.267191
C     -4.172545   -1.172275    0.669740
C     -5.299478   -0.850407    1.616435
C     -6.648347   -0.977743    0.902180
C     -7.790532   -0.728565    1.841964
O     -7.833072    0.330957    2.518550
O     -8.835431   -1.645446    1.944733
N     -2.626079   -0.965282   -0.945012
C     -2.573935    3.257729   -2.400239
C     -0.220682    4.600902   -0.721551
C      0.881094    3.981190   -1.589245
C      1.920080    4.994677   -1.958593
O      1.579924    6.152503   -2.327214
O      3.267133    4.641001   -1.939119
C      2.897871    3.707939    1.455562
C      4.257477    0.890552    0.926893
C      4.202373    0.916268   -0.607392
C      5.523002    0.551489   -1.215788
O      6.569259    1.186943   -0.904260
O      5.582720   -0.454713   -2.175248
C      3.532076   -2.775692   -0.595608
C      3.959508   -4.160402   -0.103131
C      5.435582   -4.353849   -0.278282
O      6.183871   -4.418239    0.733980
O      5.993512   -4.460347   -1.548357
C      1.150249   -3.923896   -2.391097
H     -3.163007   -3.601613    2.246735
H     -3.557450   -4.555372    0.758566
H     -4.861046   -3.699977    1.624853
H     -1.595939   -3.311196   -2.018025
H     -1.721160   -4.219502   -0.476146
H     -0.587453   -1.807970    1.360024
H      1.646896   -1.699743    2.831243
H      3.189179   -1.599128    1.966303
H     -0.119854    0.302829    2.424725
H      0.188596    4.127056    2.157890
H     -0.694435    2.896240    3.088425
H     -2.373667    1.344325    1.833911
H     -4.828853    1.427937    0.076804
H     -4.202895    1.223532   -1.583979
H     -5.172732    0.180151    2.012452
H     -5.269593   -1.541448    2.487815
H     -6.712745   -0.243782    0.069144
H     -6.738387   -1.998785    0.472028
H     -8.847964   -2.496429    1.396809
H     -2.008160   -0.553495   -1.678775
H     -3.672702    3.395881   -2.491301
H     -2.082658    4.177655   -2.775113
H     -2.256045    2.405392   -3.032428
H     -0.784559    5.358593   -1.308989
H      0.224996    5.142804    0.136480
H      1.373103    3.147760   -1.037795
H      0.442516    3.562917   -2.521374
H      3.982406    5.313788   -2.181922
H      3.251977    4.029736    2.454327
H      2.198163    4.465380    1.061047
H      3.760462    3.664341    0.765836
H      4.947565    1.680888    1.292737
H      4.659785   -0.078545    1.281035
H      3.430921    0.201002   -0.962501
H      3.913376    1.927176   -0.963947
H      6.456829   -0.688763   -2.628328
H      3.764824   -2.664327   -1.675387
H      4.114499   -1.996898   -0.063269
H      3.689294   -4.276272    0.966673
H      3.426379   -4.949810   -0.672739
H      5.414818   -4.422696   -2.378567
H      0.498733   -3.528522   -3.197031
H      2.191469   -3.952140   -2.767273
H      0.835878   -4.958355   -2.149124
