12

C      1.736818   -0.085283    0.494855
C      0.403320   -0.050425   -0.250096
O     -0.624009    0.253145    0.676393
C     -1.899428    0.154832    0.074837
F     -2.799246    0.883651    0.828186
F     -2.312332   -1.165922    0.059229
F      0.466099    0.926589   -1.233680
F      0.191795   -1.290115   -0.839499
F      1.980080    1.142040    1.085556
Cl     3.077287   -0.468273   -0.618580
H      1.701898   -0.863615    1.286653
H     -1.922283    0.563375   -0.960550
