40

C      2.126610    2.534698   -1.304941
C      2.206024    2.081978    0.149384
N      2.391970    0.622349    0.225310
C      3.664589    0.126907    0.295479
C      3.908665   -1.253152    0.361729
C      2.816986   -2.138078    0.309113
O      3.008742   -3.385642    0.307281
C      1.510895   -1.626909    0.224552
C      0.386404   -2.468806    0.178040
C     -0.894594   -1.925136    0.081978
C     -1.050302   -0.533487    0.020584
N      0.049339    0.265125    0.081171
C      1.316264   -0.228407    0.179689
N     -2.355271    0.060910   -0.075649
C     -3.209916   -0.245007   -1.228566
C     -4.681549   -0.094828   -0.838156
N     -4.918302    1.228747   -0.247887
C     -4.127005    1.392179    0.978327
C     -2.631583    1.295515    0.665309
F     -1.973213   -2.748059    0.090458
C      5.307168   -1.737760    0.455776
O      6.225404   -1.113469   -0.139210
O      5.641774   -2.856351    1.216920
H      3.060947    2.262643   -1.840147
H      1.263090    2.053662   -1.810951
H      1.996905    3.636588   -1.346705
H      3.047161    2.612115    0.649105
H      1.283304    2.390901    0.687440
H      4.506439    0.810687    0.316480
H      0.494304   -3.545618    0.224751
H     -2.972246    0.459550   -2.055069
H     -3.035819   -1.276978   -1.598711
H     -4.966941   -0.899049   -0.122357
H     -5.309382   -0.207617   -1.748262
H     -5.929688    1.282862    0.016568
H     -4.406710    0.618145    1.728847
H     -4.338710    2.389494    1.420682
H     -2.063267    1.308990    1.621368
H     -2.318604    2.170331    0.054568
H      4.970120   -3.320020    1.815704
