60

C     -3.657031    3.109307    0.820051
C     -4.688941    2.303946    0.025943
O     -4.036728    1.388210   -0.835625
C     -3.896488    0.110733   -0.228776
C     -2.643595   -0.567386   -0.802626
N     -1.436685    0.207202   -0.445518
C     -0.945484   -0.109859    0.921151
C      0.320155   -0.979087    0.901114
N      1.426580   -0.289411    0.194966
C      0.972383    0.534369   -0.957349
C     -0.394798    0.081722   -1.490731
C      2.538308   -1.217179   -0.134647
C      3.830345   -0.849591    0.627168
C      3.619110   -0.865923    2.146451
C      4.403394    0.484801    0.188588
O      3.653665    1.498680    0.170890
C      5.833881    0.650765   -0.174254
C      6.836717   -0.170614    0.379218
C      8.178404    0.013950    0.029664
C      8.537806    1.020834   -0.870139
C      7.554597    1.848937   -1.420151
C      6.210572    1.667490   -1.073700
C     -5.121587   -0.738252   -0.507928
C     -5.674241   -1.538566    0.510775
C     -6.807900   -2.320179    0.259228
C     -7.387734   -2.321493   -1.011752
C     -6.835048   -1.543939   -2.035706
C     -5.706166   -0.758706   -1.789183
H     -4.174413    3.873219    1.436236
H     -2.956428    3.622147    0.123246
H     -3.077592    2.440994    1.491857
H     -5.267300    3.012234   -0.606681
H     -5.424776    1.818788    0.715143
H     -3.749919    0.192991    0.875041
H     -2.762887   -0.620992   -1.908969
H     -2.563644   -1.614330   -0.433404
H     -0.711358    0.844507    1.439263
H     -1.716497   -0.618456    1.538937
H      0.629174   -1.190299    1.949310
H      0.067787   -1.950275    0.411439
H      0.880308    1.587585   -0.613311
H      1.708673    0.553303   -1.790214
H     -0.670255    0.720455   -2.359444
H     -0.309487   -0.971497   -1.848341
H      2.758848   -1.247006   -1.225681
H      2.285853   -2.271325    0.126265
H      4.555171   -1.655524    0.381578
H      4.588635   -0.713353    2.667757
H      2.918233   -0.062251    2.460503
H      3.208177   -1.847819    2.464505
H      6.594091   -0.938450    1.101392
H      8.941858   -0.618577    0.464469
H      9.579290    1.162987   -1.136910
H      7.831505    2.633195   -2.112451
H      5.463121    2.317748   -1.516412
H     -5.230688   -1.555624    1.501646
H     -7.238221   -2.921032    1.052406
H     -8.265501   -2.924332   -1.203934
H     -7.281235   -1.546094   -3.022607
H     -5.294012   -0.163679   -2.595397
