35

C      4.494903   -0.781353   -1.294691
N      4.056381    0.237153   -0.332465
C      5.042688    1.191971    0.188122
C      2.671053    0.298727    0.097450
C      1.645082   -0.270064   -0.686357
C      0.309783   -0.211843   -0.274341
C     -0.027100    0.419522    0.944342
C      0.985566    0.989817    1.725591
C      2.317673    0.930073    1.308556
N     -1.329468    0.471297    1.346255
C     -2.310699   -0.099486    0.589383
C     -3.676843   -0.089182    0.952639
C     -4.620776   -0.634992    0.065369
C     -4.240407   -1.211784   -1.153993
O     -5.124774   -1.695183   -1.910549
C     -2.894938   -1.263496   -1.537735
C     -1.915894   -0.721470   -0.698707
O     -0.635238   -0.744994   -1.040018
O     -2.549138   -1.852390   -2.755378
C     -4.154645    0.441030    2.249564
O     -3.554356    0.144310    3.316108
O     -5.299252    1.232059    2.317099
H      5.602469   -0.842579   -1.348704
H      4.120613   -1.780146   -0.984736
H      4.111167   -0.534608   -2.306619
H      5.277597    0.952700    1.246280
H      5.988418    1.160485   -0.393239
H      4.642076    2.225516    0.117194
H      1.868995   -0.750865   -1.628834
H      0.745791    1.477829    2.662356
H      3.069507    1.371604    1.947614
H     -1.559824    0.973095    2.231833
H     -5.670832   -0.639424    0.335163
H     -1.588521   -1.910340   -3.071943
H     -5.797060    1.517010    1.482249
