25

C     -2.856929    0.499289    2.314586
C     -1.992482   -0.502313    1.937148
N     -1.872645   -0.478984    0.597612
C     -2.664321    0.545871    0.193440
N     -3.282171    1.164825    1.223007
N     -2.843955    0.968214   -1.167454
O     -3.531434    1.981024   -1.410003
O     -2.325951    0.252697   -2.219938
C     -0.987865   -1.346114   -0.183724
C      0.242708   -0.599368   -0.604157
O      0.489918   -0.447462   -1.831100
N      1.134792   -0.067911    0.385918
C      2.339931    0.681643    0.037880
C      3.438195   -0.263916   -0.451221
O      4.614931    0.452143   -0.709368
H     -3.153620    0.737031    3.327209
H     -1.477538   -1.189073    2.596823
H     -1.529322   -1.757284   -1.061041
H     -0.675495   -2.219022    0.429698
H      0.889499   -0.170477    1.396396
H      2.103248    1.437483   -0.742214
H      2.705750    1.221717    0.938233
H      3.109818   -0.806850   -1.365923
H      3.648876   -1.017855    0.336852
H      4.476058    0.924693   -1.571525
