32

C     -3.429271    2.531945    1.442281
C     -3.220401    1.395532    0.446066
C     -2.193849    1.777932   -0.621387
S     -1.969862    0.404242   -1.806655
P     -0.275546   -0.446658   -0.847195
O     -0.561519   -0.666199    0.622147
O      0.120777   -1.923938   -1.608363
C     -0.842457   -2.906465   -1.289508
C     -0.301725   -3.838003   -0.211218
S      1.365652    0.878546   -1.047350
C      2.534643   -0.224866   -0.179535
C      3.923736    0.411713   -0.088176
C      3.955381    1.594136    0.879297
H     -2.476635    2.768096    1.962753
H     -4.181937    2.228266    2.200045
H     -3.797515    3.440568    0.919900
H     -4.190986    1.158984   -0.041529
H     -2.878340    0.493977    0.996226
H     -2.570442    2.654926   -1.189614
H     -1.231775    2.070964   -0.150693
H     -1.026256   -3.510546   -2.202883
H     -1.835713   -2.502960   -0.982632
H      0.653254   -4.294354   -0.547864
H     -1.036140   -4.646722   -0.012306
H     -0.123033   -3.278472    0.730122
H      2.618656   -1.175519   -0.747988
H      2.158656   -0.457390    0.840027
H      4.644497   -0.355263    0.269174
H      4.253176    0.745089   -1.096111
H      3.288206    2.408118    0.526028
H      4.990037    1.991924    0.943319
H      3.636734    1.272398    1.893622
