26

C      4.108386    0.931189    1.691333
C      4.136140    0.456274    0.242533
O      3.059157   -0.444636   -0.015818
C      1.713303   -0.081570   -0.188157
C      0.766063   -1.111857   -0.324750
C     -0.571695   -0.769981   -0.497869
C     -0.994807    0.547480   -0.541719
C     -0.074789    1.586439   -0.412398
C      1.283610    1.271578   -0.236678
N     -2.329607    0.721779   -0.715283
C     -2.960516   -0.473239   -0.809950
S     -1.897181   -1.783611   -0.680449
S     -4.691404   -0.632306   -1.028853
O     -4.968019   -1.511361   -2.215581
O     -5.290860    0.723891   -1.272893
N     -5.400421   -1.322473    0.388570
H      4.165921    0.058434    2.375604
H      4.977279    1.595414    1.882541
H      3.176629    1.494452    1.903261
H      4.112297    1.315900   -0.460040
H      5.090619   -0.084395    0.070884
H      1.069229   -2.150652   -0.293956
H     -0.398765    2.618821   -0.447928
H      1.986944    2.086120   -0.143133
H     -5.121139   -0.719112    1.194333
H     -4.946374   -2.251582    0.536396
