41

C     -5.086434    0.384223   -0.022801
C     -3.904986   -0.565280    0.225189
C     -4.398007   -1.838080    0.925384
C     -3.174169   -0.938547   -1.086980
C     -2.566208    0.250091   -1.860510
C     -1.574769    1.113797   -1.060140
C     -0.360233    0.319583   -0.556939
C      0.679382    1.253869    0.080589
C      1.838921    0.490893    0.741448
C      2.794188   -0.138730   -0.287241
C      3.959817   -0.891698    0.374252
C      5.008556    0.052059    0.977274
C      6.181742   -0.729305    1.486982
O      6.221524   -1.088154    2.693300
O      7.211136   -1.102031    0.627597
H     -5.641858    0.562652    0.922685
H     -4.726616    1.369494   -0.384362
H     -5.785312   -0.046139   -0.771802
H     -3.192267   -0.069681    0.918177
H     -5.129822   -2.379038    0.287390
H     -3.542593   -2.513245    1.141841
H     -4.884379   -1.582695    1.891139
H     -3.888521   -1.456898   -1.764070
H     -2.367629   -1.670300   -0.865403
H     -3.382268    0.900265   -2.240883
H     -2.044444   -0.149570   -2.757403
H     -2.091637    1.603425   -0.208030
H     -1.218673    1.925843   -1.731476
H      0.095640   -0.221152   -1.413011
H     -0.690836   -0.422127    0.201185
H      1.077996    1.956413   -0.683966
H      0.178267    1.861309    0.866257
H      1.436105   -0.294486    1.417913
H      2.400979    1.216338    1.365917
H      3.190290    0.644528   -0.970092
H      2.233085   -0.871178   -0.904537
H      4.449359   -1.516959   -0.405100
H      3.570319   -1.577368    1.158902
H      4.570138    0.631558    1.816746
H      5.359958    0.771729    0.206736
H      7.194258   -0.845128   -0.352160
