19

C      0.364485   -1.804710    0.196693
C     -0.190533   -0.536909   -0.467682
O     -0.746300   -0.850229   -1.719611
P      1.175303    0.647773   -0.735583
O      0.661097    1.869217   -1.465140
O      1.854127    1.109760    0.746064
O      2.368396   -0.092687   -1.680005
P     -1.468285    0.223349    0.606646
O     -2.621024   -0.740705    0.775172
O     -2.045721    1.648553   -0.101606
O     -0.812435    0.567495    2.129230
H      1.114366   -2.289246   -0.464315
H      0.849241   -1.560289    1.166164
H     -0.451363   -2.534474    0.386342
H     -1.480773   -1.501829   -1.571762
H      1.320154    1.888700    1.044240
H      3.107694    0.565413   -1.714718
H     -1.458610    2.364557    0.249498
H     -1.539820    1.026259    2.620372
