86

C     -3.408248    0.853709    2.746060
C     -2.759023    0.569827    1.415335
C     -3.510239    0.397082    0.217205
C     -2.834625    0.178752   -0.989891
C     -1.444640    0.076228   -1.025971
C     -0.692449    0.215507    0.149363
C     -1.355149    0.467631    1.362693
C      0.783527    0.099047    0.103696
C      1.593453    1.057947    0.733163
C      2.996804    0.975408    0.669413
C      3.592810   -0.087154   -0.059333
C      2.777346   -1.059272   -0.649579
C      1.387658   -0.964640   -0.582361
N      5.010361   -0.234223   -0.209359
N      5.794673    0.760086   -0.298669
C      7.220288    0.646114   -0.429120
C      7.892123   -0.567862   -0.727064
C      9.311676   -0.637807   -0.609303
C     10.050812    0.571712   -0.450736
C      9.353850    1.777261   -0.250074
C      7.966194    1.802310   -0.207980
C     11.467262    0.546214   -0.507186
C     12.129074   -0.676120   -0.656662
C     11.427807   -1.879185   -0.724160
C     10.016594   -1.874151   -0.695470
N      9.314900   -3.126259   -0.649221
S     12.343706   -3.395184   -0.782747
O     12.138576   -4.048311   -2.121249
O     13.811601   -3.137103   -0.591429
O     11.817902   -4.429322    0.436837
S     12.452253    2.023982   -0.423382
O     13.905533    1.708263   -0.643976
O     12.294928    2.654384    0.931156
O     11.951328    3.106568   -1.609608
O      7.189529   -1.674790   -1.216962
C      3.817364    2.015235    1.386976
N     -4.944784    0.435726    0.154089
N     -5.704739    0.284747    1.163201
C     -7.131255    0.310341    1.037874
C     -7.811258   -0.332321   -0.023519
C     -9.222964   -0.176320   -0.163221
C     -9.925946    0.635244    0.781703
C     -9.220499    1.196508    1.863877
C     -7.849499    1.023211    1.991397
C    -11.316334    0.868439    0.620401
C    -11.987931    0.302758   -0.463971
C    -11.332706   -0.523291   -1.375380
C     -9.954292   -0.784153   -1.228032
N     -9.323255   -1.691076   -2.143031
S    -12.278445   -1.255892   -2.681172
O    -12.005131   -2.733005   -2.752412
O    -11.898083   -0.617241   -3.986136
O    -13.926356   -1.025518   -2.427293
S    -12.258073    1.880937    1.734824
O    -12.201243    1.295348    3.119337
O    -11.693092    3.273985    1.739857
O    -13.867231    1.952107    1.247051
O     -7.098604   -1.128582   -0.924472
H     -3.954286   -0.050320    3.091605
H     -2.654976    1.116549    3.522978
H     -4.109019    1.713952    2.655672
H     -3.397283    0.063002   -1.910126
H     -0.952856   -0.105187   -1.975132
H     -0.770981    0.568198    2.270889
H      1.130248    1.880789    1.263826
H      3.224741   -1.884845   -1.189152
H      0.784948   -1.725623   -1.062764
H      9.865855    2.714487   -0.089266
H      7.461668    2.738781   -0.004900
H     13.209399   -0.695127   -0.689336
H      8.522567   -3.261135    0.021301
H      9.666806   -3.972671   -1.149939
H     11.886650   -3.896943    1.270119
H     11.937513    2.577933   -2.451254
H      6.279764   -1.617630   -1.652081
H      4.256202    2.721726    0.653010
H      4.627320    1.527823    1.975269
H      3.199980    2.601820    2.102242
H     -9.707861    1.796227    2.619529
H     -7.329222    1.502479    2.811215
H    -13.043008    0.495875   -0.595158
H     -8.832763   -2.539680   -1.780947
H     -9.539409   -1.659510   -3.164256
H    -14.154530   -1.625992   -1.673237
H    -14.303398    2.570025    1.887554
H     -6.157909   -1.458841   -0.757424
