35

C     -2.942944   -1.959693    0.011211
C     -2.280120   -0.739188    0.122513
N     -3.012694    0.352256   -0.230562
C     -4.275106    0.020507   -0.572828
S     -4.503075   -1.649993   -0.533821
N     -5.195314    0.977404   -1.113598
C     -6.495199    0.954421   -1.033958
N     -7.245979    1.945243   -1.735547
N     -7.188663    0.009439   -0.210320
C     -0.841775   -0.627083    0.510928
S      0.200016   -0.774488   -0.977258
C      1.775082   -0.590797   -0.075581
C      2.943616   -0.665529   -1.055105
C      4.248165   -0.517705   -0.329199
N      4.767977    0.669738   -0.211020
S      6.241855    1.049826    0.620938
O      7.389113    0.311248   -0.009319
O      6.122432    0.671874    2.071072
N      6.531175    2.749392    0.498746
N      4.851937   -1.673959    0.267534
H     -2.521751   -2.935622    0.213148
H     -6.762627    2.659194   -2.325032
H     -8.287600    1.968040   -1.668753
H     -6.711399   -0.502869    0.562198
H     -8.229078   -0.058369   -0.262384
H     -0.665636    0.356963    0.995343
H     -0.583242   -1.430497    1.233737
H      1.787328    0.390987    0.445868
H      1.864465   -1.405031    0.676028
H      2.843661    0.138486   -1.817305
H      2.924959   -1.641906   -1.586034
H      5.729423    3.229279    0.965780
H      7.381218    2.957008    1.069404
H      4.386426   -2.605004    0.185647
H      5.753355   -1.633573    0.789146
