32

C     -3.080810   -1.662326   -0.526567
C     -3.285650   -0.243659    0.021391
C     -3.163883    0.795827   -1.100884
C     -2.349945    0.066385    1.213192
C     -0.880668    0.033991    0.861605
C     -0.230955    1.196052    0.418226
C      1.124376    1.163607    0.080091
C      1.857630   -0.033480    0.181019
C      1.204697   -1.193807    0.631398
C     -0.150927   -1.159843    0.969157
C      3.328344   -0.082742   -0.182081
C      4.161627    0.813833    0.742888
C      3.529666    0.267262   -1.632160
O      3.602381    1.469234   -2.003655
O      3.583041   -0.744351   -2.582839
H     -3.156901   -2.406617    0.294441
H     -3.865415   -1.895087   -1.277780
H     -2.088391   -1.760991   -1.015154
H     -4.327910   -0.188728    0.407264
H     -3.950538    0.621366   -1.865632
H     -3.299621    1.820062   -0.693047
H     -2.172675    0.731283   -1.597566
H     -2.609242    1.065648    1.627355
H     -2.550835   -0.660751    2.030630
H     -0.775459    2.128084    0.330913
H      1.599843    2.073596   -0.262068
H      1.743378   -2.128841    0.721595
H     -0.633131   -2.066849    1.312129
H      3.709154   -1.119031   -0.041993
H      5.240002    0.719258    0.492477
H      4.021451    0.501154    1.799803
H      3.867366    1.880459    0.645847
