35

C     -3.685702   -0.330678    1.113887
C     -3.445175    0.515629   -0.138642
C     -2.767800   -0.257129   -1.292172
C     -3.686103   -1.339907   -1.874697
N     -1.493952   -0.843193   -0.858024
C     -0.313546   -0.058920   -0.641797
N     -0.311028    1.276682   -0.893174
C      0.810401    2.011387   -0.687834
N      1.937771    1.405241   -0.229844
C      1.944745    0.071262    0.021345
N      0.816716   -0.657558   -0.186803
N      3.138899   -0.555078    0.502837
C      3.192123   -1.988664    0.788260
C      4.574611   -2.395887    1.286893
O      0.789345    3.383361   -0.950964
C      1.923409    4.220895   -0.760122
H     -4.113090    0.310838    1.913055
H     -4.407666   -1.146947    0.906347
H     -2.733385   -0.762532    1.486944
H     -4.416998    0.927146   -0.488234
H     -2.809875    1.382647    0.141867
H     -2.567195    0.464507   -2.115119
H     -3.210017   -1.788515   -2.772445
H     -3.869666   -2.149811   -1.138246
H     -4.658518   -0.898539   -2.180484
H     -1.426724   -1.876666   -0.712591
H      3.986120    0.040260    0.649757
H      2.437867   -2.239597    1.565066
H      2.957401   -2.559050   -0.136318
H      5.341090   -2.168539    0.515765
H      4.820172   -1.848274    2.221578
H      4.589754   -3.486254    1.496234
H      2.760912    3.880004   -1.405054
H      2.236883    4.199834    0.305171
H      1.658219    5.262046   -1.036078
