31

C      2.679823   -0.355455   -1.660142
C      1.959187   -0.095701   -0.364485
C      2.672302    0.197728    0.817090
C      1.975909    0.452413    2.003266
C      0.581943    0.399716    2.029689
C     -0.142360    0.095867    0.873326
C      0.554631   -0.151290   -0.325834
O     -1.542392    0.056500    0.970239
P     -2.625726   -0.314127   -0.321214
S     -2.412050   -1.972416   -0.771190
O     -4.232726   -0.098206    0.210784
C     -4.313746    1.140532    0.870572
O     -2.288753    0.712525   -1.645977
C     -3.349977    0.633052   -2.566163
S      4.471341    0.272402    0.841092
C      4.662416   -1.464347    1.351112
H      3.289838   -1.278250   -1.572616
H      1.971195   -0.486733   -2.505393
H      3.343227    0.501510   -1.901286
H      2.516629    0.686222    2.911722
H      0.059107    0.595000    2.957510
H      0.018324   -0.385644   -1.232990
H     -5.375798    1.333250    1.125750
H     -3.971902    1.978619    0.222839
H     -3.742264    1.121587    1.823922
H     -4.294952    1.021776   -2.129676
H     -3.487689   -0.403115   -2.945262
H     -3.104617    1.271879   -3.438998
H      4.189590   -1.623323    2.342702
H      4.196476   -2.139075    0.603543
H      5.743014   -1.702899    1.426065
