52

C     -4.702967    2.127956   -0.647524
C     -3.441658    1.683402    0.108782
C     -3.759912    1.533873    1.607469
C     -2.814798    0.405693   -0.532597
C     -3.671947   -0.837824   -0.338005
C     -3.594880   -1.606312    0.841230
C     -4.404247   -2.733838    1.007122
C     -5.301606   -3.107344    0.002584
C     -5.390258   -2.350757   -1.169429
C     -4.582554   -1.222423   -1.339325
Cl    -6.316256   -4.522580    0.213550
C     -1.384835    0.161749   -0.104270
O     -0.750627   -0.809573   -0.601978
O     -0.755022    1.019278    0.806652
C      0.607240    0.877632    1.204218
C      0.867577    1.772150    2.336706
N      1.072746    2.478478    3.230081
C      1.535234    1.223824    0.064174
C      2.648574    0.412375   -0.212789
C      3.529900    0.741871   -1.259173
C      3.271896    1.870647   -2.044562
C      2.171766    2.686211   -1.770126
C      1.310987    2.371578   -0.716224
O      4.640972   -0.055522   -1.571647
C      5.387558   -0.806861   -0.651940
C      5.558228   -0.394352    0.683326
C      6.323719   -1.164188    1.564798
C      6.933797   -2.340220    1.119433
C      6.784417   -2.744194   -0.210169
C      6.019120   -1.976434   -1.093833
H     -4.478131    2.270425   -1.726060
H     -5.513505    1.375715   -0.544485
H     -5.068477    3.096485   -0.243344
H     -2.706628    2.513056    0.004066
H     -4.047520    2.520362    2.030570
H     -4.604995    0.830828    1.766773
H     -2.878408    1.167900    2.172189
H     -2.739996    0.603019   -1.625964
H     -2.909372   -1.333151    1.633362
H     -4.333498   -3.315515    1.917513
H     -6.085400   -2.634914   -1.949369
H     -4.669942   -0.646055   -2.252229
H      0.776039   -0.165455    1.551656
H      2.816656   -0.483348    0.371669
H      3.933834    2.122173   -2.863540
H      1.986487    3.564710   -2.374758
H      0.465404    3.017104   -0.512473
H      5.117024    0.528229    1.037324
H      6.450427   -0.844966    2.591321
H      7.526355   -2.934929    1.802335
H      7.262153   -3.651377   -0.556729
H      5.909327   -2.294591   -2.122919
