76

C      7.986527   -0.253092   -2.109251
C      8.241218   -0.037688   -0.599940
C      8.945081   -1.303319   -0.054248
C      6.896440    0.257379    0.086327
C      6.269274   -0.652252    0.965696
C      5.025106   -0.361250    1.531018
C      4.364061    0.839294    1.227447
C      4.978414    1.748897    0.355629
C      6.223627    1.462488   -0.207013
C      2.990160    1.142367    1.798267
C      1.925608    0.113544    1.357550
C      1.745701    0.078482   -0.170734
C      0.665130   -0.925990   -0.587075
N     -0.664135   -0.480206   -0.112797
C     -1.345827    0.333178   -1.142547
C     -2.661707    0.889296   -0.591162
C     -3.595145   -0.267841   -0.158490
C     -2.837468   -1.157902    0.854773
C     -1.502354   -1.634126    0.269319
C     -4.977105    0.231074    0.414851
C     -5.856074   -0.974935    0.776203
C     -6.231578   -1.908237   -0.215070
C     -7.027223   -3.011785    0.105479
C     -7.467875   -3.202449    1.415307
C     -7.117401   -2.286054    2.407783
C     -6.320626   -1.180684    2.095561
C     -5.795390    1.098069   -0.564353
C     -6.764985    1.984955   -0.048555
C     -7.567885    2.746707   -0.901827
C     -7.437929    2.620465   -2.284237
C     -6.515470    1.719837   -2.816537
C     -5.711229    0.952549   -1.969184
O     -4.712545    0.973480    1.590242
O      3.051122    1.232302    3.200364
C      9.178964    1.136860   -0.376387
O      9.534216    1.441571    0.796366
O      9.657121    1.887000   -1.449604
H      7.286781   -1.103567   -2.264253
H      8.934789   -0.483035   -2.642490
H      7.540695    0.650076   -2.577804
H      9.100508   -1.228593    1.043665
H      8.352602   -2.217041   -0.275164
H      9.941449   -1.430653   -0.529901
H      6.721356   -1.597657    1.224543
H      4.573400   -1.085586    2.195781
H      4.489966    2.680722    0.099593
H      6.663380    2.185268   -0.882081
H      2.651278    2.135540    1.431561
H      0.957981    0.388729    1.832919
H      2.200379   -0.899976    1.722176
H      2.701653   -0.227506   -0.647356
H      1.488952    1.092483   -0.545799
H      0.682966   -1.049365   -1.693386
H      0.943881   -1.918159   -0.163355
H     -1.549374   -0.271034   -2.057131
H     -0.704148    1.192783   -1.435832
H     -3.138452    1.511282   -1.376290
H     -2.421535    1.545985    0.272384
H     -3.778874   -0.902917   -1.051041
H     -3.441936   -2.053990    1.112850
H     -2.640821   -0.591930    1.792274
H     -0.985992   -2.231490    1.053653
H     -1.685434   -2.296817   -0.608071
H     -5.913323   -1.784276   -1.239936
H     -7.304767   -3.718303   -0.665658
H     -8.084608   -4.057613    1.662438
H     -7.464766   -2.431104    3.424311
H     -6.073665   -0.493423    2.894023
H     -6.908478    2.084154    1.020089
H     -8.298262    3.430429   -0.488450
H     -8.062258    3.208844   -2.943398
H     -6.430219    1.606430   -3.889542
H     -5.033574    0.249573   -2.428743
H     -4.367100    1.867463    1.335547
H      3.208190    0.321271    3.560836
H     10.279559    2.671017   -1.298437
