15

C     -0.649506   -0.613089    0.826778
C     -1.779003   -0.110808   -0.017826
O     -2.249788    1.042323    0.175736
O     -2.305103   -0.915989   -1.023232
N      0.530354    0.233005    0.634312
C      1.310079    0.199715   -0.568752
O      0.998904   -0.579253   -1.509691
N      2.446828    1.050829   -0.706368
O     -1.042649   -0.588398    2.172893
H     -0.409212   -1.661292    0.533548
H     -3.066744   -0.588843   -1.605510
H      0.823010    0.878781    1.402402
H      2.718781    1.702331    0.062676
H      3.018508    1.030634   -1.579909
H     -0.344459   -1.079947    2.679645
