13

C     -1.423964   -1.190921    0.043469
N     -2.089843   -0.008033    0.047748
C     -1.417906    1.172233    0.021534
O     -2.058967    2.256016    0.026162
N     -0.056478    1.182659   -0.009618
C      0.651868    0.017928   -0.015036
C     -0.030589   -1.204839    0.011809
F      0.638804   -2.384906    0.007422
N      2.081871    0.050537   -0.047958
H     -1.977853   -2.120033    0.064674
H      0.449727    2.097161   -0.029598
H      2.643026   -0.830080   -0.052643
H      2.590306    0.962277   -0.067964
