33

C      3.026875   -1.441650    1.487977
N      2.258306   -1.060945    0.298807
C      2.110876   -2.008395   -0.776466
O      2.758485   -3.090833   -0.763369
C      1.179736   -1.730515   -1.913403
N     -0.155045   -1.470135   -1.388681
C     -0.482716   -0.444422   -0.654628
C      0.511085    0.615643   -0.318209
C      1.818920    0.306009    0.137982
C      2.700692    1.356436    0.453683
C      2.302951    2.687049    0.321821
C      1.019016    2.991759   -0.128185
C      0.129519    1.964090   -0.447580
Cl     0.522394    4.665827   -0.295484
C     -1.894345   -0.318463   -0.210536
C     -2.936229   -0.738047   -1.058906
C     -4.269476   -0.622870   -0.655413
C     -4.578341   -0.096352    0.600025
C     -3.554329    0.311000    1.457494
C     -2.217238    0.199661    1.061653
F     -1.244214    0.565253    1.934557
H      2.778575   -2.481133    1.790967
H      2.780389   -0.776076    2.343051
H      4.113405   -1.372430    1.270254
H      1.131517   -2.609361   -2.590990
H      1.540604   -0.859779   -2.502394
H      3.706111    1.143822    0.793662
H      2.996432    3.481262    0.567503
H     -0.861874    2.218286   -0.803068
H     -2.719035   -1.141614   -2.040260
H     -5.064066   -0.941307   -1.317808
H     -5.611388   -0.009077    0.910962
H     -3.797589    0.707309    2.434982
