12

C      0.569681    1.254560   -0.012670
C      1.366511    0.112297    0.040441
C      0.742559   -1.136522    0.051261
O      1.435021   -2.188214    0.098878
N     -0.615753   -1.215553    0.010258
C     -1.377926   -0.087874   -0.041409
O     -2.634434   -0.178471   -0.078901
N     -0.783979    1.137406   -0.052597
F      2.718541    0.218675    0.080570
H      1.029362    2.234871   -0.022106
H     -1.079430   -2.152924    0.018531
H     -1.370153    2.001749   -0.092256
