15

C      1.264603   -0.202277   -0.480499
C      0.036664   -1.027275   -0.087814
P     -1.427347    0.027549    0.174627
O     -2.623713   -0.848159    0.470940
O     -1.732008    0.943481   -1.215907
O     -1.157391    1.064732    1.484043
N      1.695144    0.650958    0.623539
H      1.026782    0.425224   -1.367210
H      2.090993   -0.892161   -0.762651
H     -0.190980   -1.746404   -0.902854
H      0.243727   -1.605342    0.837784
H     -1.846973    0.276557   -1.939135
H     -1.950467    1.657581    1.504364
H      2.490887    1.236591    0.281206
H      2.080078    0.038944    1.379568
