50

C     -4.310638   -1.889849    0.828820
C     -4.052518   -0.461738    1.309110
N     -3.905625    0.486328    0.179374
C     -3.952227    1.892671    0.639867
C     -5.392300    2.395814    0.655039
C     -2.731519    0.219409   -0.688297
C     -1.375811    0.285101    0.053083
N     -0.247310    0.295598   -0.893288
C      0.057345    1.506305   -1.618626
O     -0.718019    2.499501   -1.558885
C      1.330193    1.630095   -2.389401
N      2.445020    1.512378   -1.460989
C      2.742623    0.433848   -0.794230
C      1.990226   -0.838573   -1.001764
C      0.568874   -0.891420   -1.052014
C     -0.057198   -2.140011   -1.231600
C      0.693087   -3.307433   -1.368041
C      2.084128   -3.253137   -1.327708
C      2.728098   -2.028819   -1.147841
Cl     3.025283   -4.722988   -1.503812
C      3.907981    0.475288    0.125620
C      5.040650    1.240401   -0.210328
C      6.144778    1.286215    0.645510
C      6.128762    0.577377    1.848074
C      5.006137   -0.174544    2.200509
C      3.896923   -0.226279    1.349745
F      2.805254   -0.932324    1.739946
H     -4.642381   -2.515040    1.684594
H     -5.105351   -1.896995    0.052993
H     -3.383136   -2.340580    0.418697
H     -4.928665   -0.169736    1.927276
H     -3.168781   -0.438280    1.981413
H     -3.381467    2.563034   -0.041492
H     -3.506481    2.004277    1.654205
H     -6.001014    1.830100    1.390007
H     -5.843572    2.285459   -0.353848
H     -5.408911    3.469501    0.938062
H     -2.850230   -0.766396   -1.177322
H     -2.737588    0.942004   -1.531658
H     -1.323406    1.196466    0.685619
H     -1.279848   -0.583413    0.739011
H      1.382150    2.620303   -2.890081
H      1.389871    0.843143   -3.172116
H     -1.132495   -2.216935   -1.275048
H      0.189475   -4.255589   -1.507816
H      3.811124   -2.005291   -1.126666
H      5.076951    1.791180   -1.142209
H      7.014294    1.871330    0.375097
H      6.984373    0.615134    2.509878
H      4.992895   -0.712891    3.139509
