12

C     -1.702561   -0.309403   -0.030832
C     -0.254226    0.050294   -0.039818
C      0.816374   -0.807053   -0.164770
N      1.944245   -0.087590   -0.030577
N      1.642169    1.182766    0.189863
C      0.299117    1.292655    0.195679
H     -2.308996    0.546219   -0.395387
H     -2.014184   -0.564004    1.003424
H     -1.881480   -1.183045   -0.692286
H      0.779733   -1.876116   -0.329074
H      2.918325   -0.459687   -0.077557
H     -0.238518    2.214965    0.371336
