49

C      1.021489    2.070246   -0.018264
C      1.096694    1.220850   -1.296843
C      1.708327   -0.178390   -1.040743
C      3.168864   -0.092319   -0.675037
C      3.569431   -0.126281    0.669823
C      4.921839   -0.019520    1.007571
C      5.895355    0.128505    0.001077
C      5.491352    0.169012   -1.338399
C      4.139374    0.062849   -1.676494
O      7.263916    0.239681    0.288258
C      7.814045    0.215512    1.601340
N     -0.220468    1.153472   -1.963956
C     -1.205093    0.295161   -1.285234
C     -2.613391    0.576582   -1.840514
C     -3.648672   -0.332730   -1.207018
C     -3.975302   -0.217902    0.156874
C     -4.930753   -1.067738    0.743536
C     -5.535316   -2.066844   -0.039089
C     -5.205951   -2.189098   -1.394723
C     -4.273009   -1.328459   -1.975173
O     -6.469187   -2.930430    0.532440
N     -5.250250   -0.966085    2.142956
C     -5.342380    0.272622    2.858122
O     -5.314329    1.378501    2.255766
O     -2.974187    1.927664   -1.681470
H      2.042459    2.369044    0.300718
H      0.437565    2.995488   -0.209791
H      0.549498    1.510607    0.815623
H      1.778321    1.763596   -1.990838
H      1.149430   -0.702911   -0.235120
H      1.606752   -0.797256   -1.959098
H      2.833824   -0.231149    1.457801
H      5.198963   -0.050430    2.052388
H      6.229726    0.286101   -2.121519
H      3.848010    0.103504   -2.718851
H      7.411088    1.059790    2.199719
H      8.916163    0.321548    1.534680
H      7.578956   -0.750506    2.096095
H     -0.079257    0.784448   -2.934284
H     -1.203038    0.478682   -0.190948
H     -0.960238   -0.776755   -1.459333
H     -2.579385    0.379218   -2.934719
H     -3.463578    0.512269    0.768717
H     -5.673408   -2.954463   -2.001201
H     -4.033120   -1.446641   -3.024558
H     -6.921727   -3.657376   -0.009463
H     -5.509548   -1.834044    2.663322
H     -5.475028    0.259088    3.931767
H     -2.814823    2.183287   -0.735909
