10

C     -0.797533   -0.506799    0.660209
O     -0.532106   -1.318110    1.584379
O     -2.094941   -0.028325    0.514800
P      0.486324   -0.008671   -0.484276
O      0.302661   -0.743178   -1.792665
O      0.381256    1.657158   -0.760079
O      2.008056   -0.374481    0.161059
H     -2.333044    0.614972   -0.230354
H      0.551080    2.070316    0.123894
H      2.028248   -1.362882    0.223033
