45

C      3.186284    2.328699   -0.956345
C      2.789974    1.274659    0.090410
C      3.816985    0.111733    0.232497
C      3.134159   -1.181668    0.757209
C      1.925509   -0.833433    1.646778
C      0.931288    0.104517    0.890634
O      1.521357    0.744417   -0.238487
O     -0.160840   -0.679585    0.445273
C     -1.280377    0.123940    0.096816
C     -2.297288    0.105820    1.273673
O     -2.947129   -1.150774    1.441194
C     -3.573781   -1.644141    0.266078
C     -2.581475   -1.779861   -0.907456
C     -1.888957   -0.441917   -1.195203
O     -2.789504    0.482790   -1.751821
O     -3.234493   -2.238777   -2.063492
O     -4.687472   -0.856508   -0.074186
C     -3.292533    1.287822    1.280548
O     -2.643844    2.477272    1.646206
O      2.385597   -0.212338    2.820839
O      2.705342   -1.983173   -0.316342
O      4.525201   -0.141242   -0.958716
O      4.464501    2.841881   -0.692244
H      2.437037    3.152959   -0.954742
H      3.176616    1.887789   -1.974776
H      2.734902    1.821869    1.062893
H      4.564418    0.431177    0.992058
H      3.882038   -1.749901    1.359758
H      1.414069   -1.785868    1.924654
H      0.573454    0.883900    1.607228
H     -0.987963    1.178863   -0.124472
H     -1.695154    0.244315    2.198419
H     -3.931153   -2.670629    0.511744
H     -1.795694   -2.516801   -0.616965
H     -1.054962   -0.619784   -1.915932
H     -2.861025    0.273768   -2.719893
H     -3.445957   -3.196858   -1.911934
H     -5.274110   -1.412325   -0.651065
H     -3.805348    1.414487    0.304088
H     -4.079849    1.084326    2.036961
H     -2.293037    2.884484    0.812564
H      1.651899   -0.278086    3.486090
H      2.548046   -2.893823    0.047419
H      3.861872   -0.322111   -1.674561
H      4.371396    3.448116    0.088305
