40

C     -2.962513   -0.201909   -2.801834
C     -3.913955   -0.952437   -2.114750
C     -3.665350   -1.372606   -0.806751
C     -2.457115   -1.045362   -0.158922
C     -1.488402   -0.286387   -0.870732
C     -1.756088    0.127713   -2.185661
C     -0.167110    0.064179   -0.292407
C      0.048713    1.337134    0.269623
C     -0.936573    2.334643    0.342029
C     -0.645871    3.573114    0.922164
C      0.629067    3.854486    1.449119
N      0.872138    5.016071    1.982925
C      1.638449    2.877369    1.399101
C      1.387070    1.629619    0.829400
O      2.337897    0.709690    0.790851
C      2.151000   -0.494179    0.261714
C      0.900948   -0.865953   -0.301322
C      0.764061   -2.156482   -0.854695
C      1.835937   -3.051862   -0.842994
C      3.063648   -2.680950   -0.283603
C      3.215625   -1.402484    0.265802
N      4.157324   -3.602422   -0.274496
C     -2.248096   -1.505929    1.241057
O     -2.997744   -2.393316    1.731806
O     -1.245335   -0.960189    2.037252
H     -3.158226    0.121760   -3.815946
H     -4.849014   -1.208714   -2.596020
H     -4.428548   -1.948030   -0.297650
H     -1.022168    0.703523   -2.736780
H     -1.933975    2.167393   -0.043673
H     -1.427714    4.322294    0.961449
H      0.137156    5.757992    2.031939
H      1.810792    5.247418    2.381050
H      2.621848    3.084304    1.805207
H     -0.166808   -2.483512   -1.299286
H      1.708867   -4.037983   -1.271953
H      4.164894   -1.110394    0.698476
H      4.054483   -4.558520   -0.682172
H      5.078092   -3.335641    0.140119
H     -1.107406   -1.273436    2.990564
