20

C      3.597484   -0.104393   -0.436777
C      2.163906    0.008820   -0.829287
O      1.864607    0.192776   -2.040217
O      1.180195    0.019116    0.168003
C     -0.200170   -0.118224   -0.050620
C     -0.687182   -0.912520   -1.107573
C     -2.059121   -1.058576   -1.313093
C     -2.963364   -0.425575   -0.463663
C     -2.499731    0.349299    0.600394
C     -1.118063    0.510477    0.826940
C     -0.661470    1.343053    1.971358
O     -1.501251    1.873161    2.746949
O      0.690569    1.557325    2.211450
H      3.685213   -0.672513    0.512918
H      4.169454   -0.635941   -1.226414
H      4.023288    0.910570   -0.295111
H     -0.007989   -1.446240   -1.758230
H     -2.421826   -1.671959   -2.127889
H     -4.027457   -0.541846   -0.624564
H     -3.227093    0.823191    1.247714
