32

C      5.595103    0.519340    0.156931
C      5.324093   -0.584069    0.941351
O      4.074306   -0.545482    1.343056
C      3.514647    0.539360    0.859984
C      4.425012    1.245550    0.100228
C      2.082064    0.910098    1.077783
N      1.239624    0.305581    0.046214
C     -0.177156    0.108633    0.215415
C     -0.915009    0.993282    1.021328
C     -2.303163    0.882488    1.132969
C     -2.985366   -0.127364    0.429730
C     -2.255900   -1.014090   -0.374185
C     -0.857302   -0.922614   -0.478851
C     -0.143767   -1.945463   -1.281043
O      1.040339   -2.274503   -1.001070
O     -0.798749   -2.588961   -2.328024
S     -4.744627   -0.296796    0.527508
O     -5.186114   -0.243346    1.963432
O     -5.168326   -1.618541   -0.049995
N     -5.501432    0.973611   -0.369253
Cl    -3.144390    2.050285    2.147556
H      6.534613    0.762293   -0.320966
H      6.023008   -1.370173    1.193733
H      4.256515    2.171283   -0.434000
H      1.771409    0.543611    2.079957
H      1.970082    2.015087    1.050450
H      1.664916    0.104518   -0.887424
H     -0.415501    1.797093    1.546000
H     -2.779573   -1.798101   -0.906411
H     -0.330651   -3.301768   -2.874867
H     -5.275451    1.871957    0.112383
H     -6.533255    0.837202   -0.280359
