46

C     -5.945730    2.270748    0.770942
O     -5.194689    1.172119    0.263559
C     -3.794407    1.125420    0.173535
C     -3.152257   -0.026793   -0.352620
C     -1.739691   -0.069627   -0.416652
C     -0.978928    1.045806   -0.013791
C      0.526851    1.029935   -0.039967
C      1.110167   -0.147091   -0.851709
C      2.569234   -0.335952   -0.502186
C      3.533312    0.553287   -1.028379
C      4.856071    0.395942   -0.631047
C      5.235240   -0.571283    0.239204
C      4.325180   -1.466970    0.789399
C      2.966242   -1.344336    0.426444
C      1.977945   -2.356552    0.950061
C      0.523252   -1.932324    0.728764
N      0.360145   -1.403153   -0.639073
C     -1.053932   -1.269966   -1.036156
O      6.598559   -0.493620    0.448986
C      7.106536    0.593074   -0.337469
O      5.960926    1.133445   -1.010515
C     -1.623712    2.171036    0.506175
C     -3.010779    2.212823    0.599881
O     -3.855320   -1.152211   -0.829300
C     -5.267807   -1.320577   -0.875070
H     -5.758729    3.177413    0.157671
H     -7.026009    2.024670    0.718793
H     -5.676303    2.460815    1.831314
H      0.894623    1.982709   -0.480821
H      0.890714    0.993066    1.010443
H      1.047786    0.112222   -1.933441
H      3.257943    1.342644   -1.716287
H      4.659733   -2.238138    1.471816
H      2.155619   -3.319209    0.423424
H      2.144677   -2.521812    2.036707
H     -0.117172   -2.829942    0.874988
H      0.221692   -1.184950    1.493889
H     -1.106189   -1.165631   -2.141358
H     -1.599560   -2.206066   -0.785926
H      7.844255    0.218263   -1.077596
H      7.562198    1.362178    0.320830
H     -1.046259    3.022455    0.846105
H     -3.465990    3.104357    1.008337
H     -5.728009   -0.541228   -1.518116
H     -5.692001   -1.295166    0.150574
H     -5.495429   -2.311833   -1.317563
