65

C      2.148525   -1.164541   -0.757504
C      0.635610   -1.246405   -1.017312
N     -0.149439   -1.155599    0.236686
C      0.487631   -0.295405    1.251866
C      1.852023   -0.882318    1.662013
N      2.450826   -1.697970    0.582102
C      3.885173   -1.987331    0.805786
C      4.832944   -0.824884    0.434518
C      6.271985   -1.139719    0.856255
C      7.197888   -0.023266    0.454713
C      7.425110    1.058089    1.323078
C      8.268359    2.106160    0.937515
C      8.879260    2.087529   -0.319857
C      8.645385    1.022857   -1.195030
C      7.804116   -0.027550   -0.813238
C     -1.573966   -0.833921   -0.003585
C     -1.849736    0.665410   -0.266863
O     -3.104946    0.859143   -0.892325
C     -4.193553    0.676485    0.005772
C     -5.196905    1.799526   -0.157565
C     -6.055765    2.127552    0.909237
C     -7.027445    3.121068    0.756485
C     -7.149357    3.801071   -0.458759
C     -6.308288    3.480760   -1.525958
C     -5.340715    2.482239   -1.383689
C     -4.874403   -0.642273   -0.287494
C     -5.274392   -1.483611    0.766703
C     -5.919139   -2.694431    0.498115
C     -6.179754   -3.071865   -0.821346
C     -5.798786   -2.238155   -1.876084
C     -5.152849   -1.026453   -1.613341
H      2.683572   -1.740851   -1.542502
H      2.468847   -0.101473   -0.826306
H      0.413918   -2.224459   -1.496181
H      0.355056   -0.453401   -1.741592
H     -0.158218   -0.214574    2.154752
H      0.643378    0.728186    0.844732
H      2.521875   -0.049484    1.965476
H      1.703096   -1.533915    2.549455
H      4.042636   -2.266926    1.872787
H      4.162398   -2.881889    0.203855
H      4.510127    0.116417    0.928096
H      4.814693   -0.667999   -0.667272
H      6.317895   -1.285785    1.957621
H      6.600799   -2.090315    0.383005
H      6.952219    1.088306    2.297612
H      8.446708    2.933150    1.613973
H      9.531808    2.898286   -0.618061
H      9.113982    1.012672   -2.170700
H      7.625955   -0.842677   -1.504332
H     -2.160446   -1.156196    0.883555
H     -1.951504   -1.432969   -0.863071
H     -1.763852    1.262380    0.670097
H     -1.080545    1.070231   -0.954342
H     -3.865701    0.687607    1.074740
H     -5.983630    1.601728    1.854762
H     -7.690740    3.360738    1.580061
H     -7.903326    4.567739   -0.574818
H     -6.412443    4.001602   -2.469868
H     -4.715860    2.235225   -2.233735
H     -5.085651   -1.204924    1.796064
H     -6.219204   -3.339231    1.313509
H     -6.678915   -4.010013   -1.025625
H     -6.005469   -2.530061   -2.897986
H     -4.868857   -0.389316   -2.442765
