58

C     -3.552067   -5.387620    0.947240
N     -3.227070   -4.663306   -0.286204
C     -3.714993   -5.182755   -1.569314
C     -2.442191   -3.446035   -0.238873
C     -1.655896   -3.051252   -1.339987
C     -0.894605   -1.880567   -1.290570
C     -0.915455   -1.069508   -0.148021
C     -1.686158   -1.457867    0.956906
C     -2.443345   -2.631446    0.911359
C     -0.074799    0.150331   -0.087963
C     -0.616458    1.387973    0.080330
C     -2.086352    1.605705    0.022249
C     -2.617770    2.822718    0.164198
C     -1.765945    4.028145    0.391561
N     -2.290031    5.237453    0.515429
C     -3.746082    5.450768    0.435504
C     -1.438988    6.421048    0.734555
C     -0.292975    3.799592    0.472786
C      0.235199    2.581337    0.330074
C      1.388358   -0.056810   -0.222359
C      2.102006    0.544804   -1.267103
C      3.475570    0.328647   -1.402996
C      4.169663   -0.509604   -0.504315
C      3.433833   -1.129305    0.527738
C      2.060480   -0.909099    0.661497
N      5.600114   -0.730022   -0.640217
C      6.257589   -1.837682    0.067086
C      6.416401    0.155477   -1.480804
H     -3.925531   -6.411094    0.729814
H     -4.336713   -4.841182    1.510779
H     -2.642279   -5.489294    1.576818
H     -2.873899   -5.623273   -2.145142
H     -4.180431   -4.361945   -2.155848
H     -4.485557   -5.968996   -1.422365
H     -1.611458   -3.653578   -2.237245
H     -0.289004   -1.604372   -2.146283
H     -1.695797   -0.853036    1.854839
H     -3.036285   -2.891293    1.777111
H     -2.761564    0.781589   -0.169921
H     -3.693893    2.901445    0.096830
H     -4.124433    5.128539   -0.558299
H     -4.022901    6.518384    0.560216
H     -4.259189    4.884203    1.241950
H     -0.734496    6.546280   -0.115108
H     -0.875204    6.313915    1.685724
H     -2.029818    7.357331    0.809196
H      0.391568    4.615509    0.660977
H      1.307951    2.484317    0.433594
H      1.592410    1.181516   -1.978790
H      3.983973    0.815071   -2.222637
H      3.912452   -1.781275    1.243821
H      1.521536   -1.397752    1.463491
H      5.720929   -2.788223   -0.139382
H      7.309065   -1.972155   -0.262957
H      6.262695   -1.637354    1.159589
H      6.168404   -0.006424   -2.550548
H      7.502193   -0.033406   -1.346272
H      6.227245    1.215433   -1.207799
