68

C     10.881356    2.316841    1.006520
C     10.583569    0.874035    0.615809
C      9.188419    0.746436    0.069200
C      8.811781    0.870742   -1.206489
C      7.315927    0.748732   -1.352445
N      6.845633    0.553709    0.016691
C      7.989603    0.562420    0.857861
O      7.953661    0.429808    2.110614
C      5.485406    0.331344    0.422134
O      5.217184    0.153018    1.641736
N      4.430412    0.311637   -0.552271
C      3.046789   -0.006357   -0.205377
C      2.891749   -1.507645    0.053013
C      1.451703   -1.854267    0.319815
C      0.939412   -1.801888    1.626225
C     -0.407330   -2.090755    1.868005
C     -1.257637   -2.428560    0.805679
C     -0.752610   -2.463995   -0.500140
C      0.593165   -2.175700   -0.743290
S     -2.960149   -2.776330    1.087978
O     -3.228921   -2.906948    2.561420
O     -3.311192   -4.068069    0.403703
N     -3.913519   -1.483629    0.439653
C     -5.330266   -1.598132    0.271402
O     -5.925958   -2.651104    0.627497
N     -6.067678   -0.512042   -0.305555
C     -7.519645   -0.570112   -0.510280
C     -8.244025   -0.436336    0.853170
C     -9.649148    0.156638    0.696702
C     -9.611811    1.582393    0.083498
C     -8.388099    1.805286   -0.841578
C     -7.969332    0.504496   -1.535121
C     -9.657160    2.659135    1.176475
C      9.737903    1.110490   -2.358954
H     10.174897    2.653697    1.794779
H     11.916668    2.389014    1.401424
H     10.790260    2.985625    0.124314
H     11.327126    0.530113   -0.133977
H     10.688240    0.226021    1.512193
H      6.891572    1.683348   -1.777754
H      7.059836   -0.131699   -1.980098
H      4.639356    0.567632   -1.543213
H      2.386854    0.288556   -1.050638
H      2.737532    0.577024    0.689385
H      3.517198   -1.809410    0.920835
H      3.259166   -2.074774   -0.830572
H      1.581761   -1.533656    2.456240
H     -0.783654   -2.043376    2.881566
H     -1.402898   -2.708772   -1.330398
H      0.965097   -2.198834   -1.760095
H     -3.431176   -0.598727    0.165777
H     -5.539571    0.345524   -0.587604
H     -7.774046   -1.560678   -0.951047
H     -8.318971   -1.435983    1.333425
H     -7.658006    0.218395    1.536209
H    -10.240160   -0.511605    0.031531
H    -10.162769    0.159034    1.683302
H    -10.530843    1.701543   -0.532547
H     -7.519630    2.188805   -0.259890
H     -8.639606    2.568484   -1.610083
H     -7.159283    0.713401   -2.268460
H     -8.835685    0.119295   -2.118432
H    -10.594455    2.567409    1.767221
H     -9.635780    3.670890    0.717783
H     -8.789724    2.556776    1.863316
H     10.444533    0.260534   -2.457330
H      9.159578    1.201477   -3.302493
H     10.307394    2.049625   -2.199015
