38

C     -5.752110    1.286828   -0.386407
C     -4.271672    1.105550   -0.226275
C     -3.723622   -0.184479   -0.140526
C     -2.335412   -0.354087   -0.021757
C     -1.491101    0.771338   -0.008577
C     -2.035393    2.053459   -0.125538
C     -3.419122    2.221176   -0.232176
N     -0.067165    0.596034    0.010975
C      0.480483   -0.555283    0.275102
C     -0.294081   -1.784575    0.605162
C     -1.714305   -1.689810    0.092862
O     -2.381260   -2.735539   -0.135243
C      0.568120   -2.875119   -0.061984
C      1.990663   -2.286705   -0.156812
N      1.838551   -0.842219   -0.019727
C      2.921706    0.110774   -0.048183
C      2.855169    1.297301    0.707577
C      3.910780    2.213735    0.683718
C      5.045639    1.955616   -0.087524
C      5.129104    0.777839   -0.832792
C      4.076570   -0.142512   -0.811994
O     -0.295954   -1.941215    2.002113
H     -6.077617    2.257346    0.045114
H     -6.011980    1.264858   -1.465301
H     -6.304432    0.476966    0.136190
H     -4.376623   -1.048898   -0.157973
H     -1.386207    2.919804   -0.144892
H     -3.825377    3.220612   -0.327573
H      0.196123   -3.081952   -1.090533
H      0.564209   -3.825864    0.514143
H      2.623104   -2.673531    0.671341
H      2.444814   -2.547081   -1.136104
H      1.998982    1.507789    1.334190
H      3.851069    3.122212    1.269109
H      5.862085    2.665979   -0.104174
H      6.010421    0.577445   -1.428380
H      4.164096   -1.042863   -1.403795
H     -0.768253   -2.790930    2.206644
