58

C    -11.238864   -1.480528   -1.765373
C     -9.969621   -0.912297   -1.215488
C     -8.730126   -1.454010   -1.572285
N     -7.594888   -0.932576   -1.038325
C     -7.629016    0.104733   -0.156927
C     -8.875723    0.640210    0.205553
N    -10.010931    0.117796   -0.328482
C     -6.369620    0.642576    0.402831
O     -6.408397    1.595780    1.228910
N     -5.102312    0.089416    0.015720
C     -3.849072    0.607370    0.564755
C     -2.645675   -0.146996   -0.008935
C     -1.360879    0.397983    0.555282
C     -0.819122   -0.139909    1.733320
C      0.354842    0.390982    2.275808
C      0.992615    1.472888    1.656074
C      0.450559    2.016842    0.483861
C     -0.722803    1.486375   -0.060431
S      2.474446    2.125280    2.347531
O      2.837974    3.429758    1.694514
O      2.265779    2.367914    3.815903
N      3.766272    0.992670    2.129433
C      4.218599    0.605804    0.827782
O      3.674368    1.092986   -0.200711
N      5.286750   -0.342797    0.699165
C      5.818410   -0.756914   -0.606567
C      6.645345   -2.055380   -0.486001
C      7.985017   -1.835757    0.235165
C      8.792620   -0.710385   -0.420166
C      7.978272    0.585861   -0.481127
C      6.662666    0.368600   -1.238876
H    -11.427798   -2.475772   -1.311365
H    -12.095236   -0.811599   -1.536115
H    -11.160703   -1.589993   -2.867964
H     -8.665927   -2.282144   -2.266821
H     -8.949988    1.462025    0.905992
H     -5.076013   -0.695573   -0.673667
H     -3.861812    0.495452    1.671226
H     -3.761114    1.687731    0.315578
H     -2.640765   -0.051922   -1.117328
H     -2.736456   -1.229284    0.231478
H     -1.306441   -0.968780    2.231707
H      0.765432   -0.039171    3.180514
H      0.932446    2.850372   -0.009855
H     -1.135287    1.924689   -0.960634
H      4.218751    0.583530    2.976992
H      5.642786   -0.792138    1.572303
H      4.961387   -0.974669   -1.282256
H      6.055631   -2.825248    0.057536
H      6.847230   -2.451923   -1.505630
H      7.811115   -1.594191    1.305525
H      8.576022   -2.775900    0.198001
H      9.090967   -1.013956   -1.448014
H      9.719396   -0.533929    0.167174
H      8.574437    1.367357   -0.999914
H      7.765709    0.946591    0.549322
H      6.088951    1.319337   -1.254500
H      6.889796    0.104834   -2.295648
