28

C     -1.801229   -1.610883    0.282799
N     -2.280069   -0.574781   -0.648827
C     -2.958512    0.510229    0.082433
C     -1.201282   -0.071430   -1.533346
C     -0.083340    0.626192   -0.796112
C     -0.044145    1.969159   -0.429999
N      1.104795    2.247939    0.226205
C      1.794078    1.095157    0.274836
C      3.046296    0.884728    0.850641
C      3.592543   -0.409722    0.782170
C      2.884441   -1.452209    0.144591
C      1.622913   -1.210638   -0.428943
C      1.103554    0.081985   -0.340807
H     -1.084998   -1.191222    1.022279
H     -1.306754   -2.436291   -0.273857
H     -2.656811   -2.052103    0.839943
H     -2.996572   -1.024119   -1.267736
H     -2.298839    0.947209    0.863270
H     -3.873458    0.122134    0.581822
H     -3.274760    1.315530   -0.616205
H     -1.629161    0.636656   -2.277708
H     -0.779008   -0.911942   -2.127160
H     -0.816005    2.700492   -0.631558
H      1.394584    3.173461    0.613341
H      3.582736    1.690775    1.334328
H      4.562696   -0.607301    1.219119
H      3.315833   -2.443487    0.095380
H      1.080478   -2.005518   -0.922632
