16

C      0.875412    1.279110   -0.244453
C     -0.473783    1.632726   -0.160804
C     -1.449554    0.655472    0.055147
C     -1.070098   -0.690295    0.188735
C      0.284662   -1.044344    0.104591
C      1.270078   -0.063299   -0.112747
N      2.660790   -0.424744   -0.199385
O      3.018159   -1.615492   -0.083264
O      3.621428    0.537493   -0.412024
O     -2.038072   -1.670169    0.404281
O     -2.787893    1.039228    0.133996
H      1.609184    2.056750   -0.412210
H     -0.762474    2.671104   -0.264271
H      0.564845   -2.084837    0.209127
H     -1.791137   -2.647895    0.504078
H     -3.531547    0.369193    0.289200
