9

C     -0.101888    0.211738   -0.161818
N     -1.000230    1.029067    0.286855
N     -0.487876   -0.968137   -0.870572
N      1.280457    0.493356    0.054170
H     -2.020353    0.853971    0.146736
H     -1.495024   -1.188708   -1.037000
H      0.236571   -1.627086   -1.232297
H      2.015475   -0.156864   -0.302028
H      1.572868    1.352663    0.570765
