66

C     -3.525739    1.004352    0.247276
C     -4.640108    0.093239   -0.292450
C     -5.682258   -0.258713    0.782797
C     -6.767296   -1.214983    0.262951
C     -7.716261   -0.543893   -0.741966
N     -8.836347   -1.427332   -1.062931
C     -9.888875   -1.647003   -0.325932
N    -10.080171   -0.995650    0.937411
N    -10.883642   -2.555318   -0.797821
C     -2.481460    0.235137    1.070433
C     -1.364968    1.170793    1.550950
C     -0.263947    0.387007    2.289770
N      0.667217    1.255374    3.033383
C      1.457908    2.171253    2.194171
C      2.500497    1.422387    1.351551
C      3.458268    2.406433    0.662955
C      4.575106    1.698029   -0.120015
C      4.047435    0.933292   -1.347749
C      5.169678    0.515276   -2.311026
C      6.099976   -0.547035   -1.708086
C      7.130674   -1.022349   -2.738824
N      8.054224   -1.984919   -2.139249
C      9.056684   -1.711319   -1.352175
N      9.845619   -2.785767   -0.840754
N      9.393547   -0.364174   -0.992492
H     -3.014099    1.472972   -0.621655
H     -3.966774    1.822980    0.856911
H     -4.198922   -0.834521   -0.717430
H     -5.144794    0.635635   -1.118951
H     -5.177695   -0.755911    1.636835
H     -6.156843    0.670159    1.167271
H     -7.351624   -1.577293    1.135702
H     -6.293574   -2.104532   -0.208207
H     -8.088123    0.433484   -0.366097
H     -7.164022   -0.346006   -1.683739
H     -9.399106   -0.309570    1.328235
H    -10.927623   -1.210020    1.508126
H    -11.741059   -2.743968   -0.232941
H    -10.770572   -3.034700   -1.719235
H     -2.964413   -0.230883    1.955175
H     -2.040182   -0.570508    0.443117
H     -0.925318    1.679489    0.666673
H     -1.799357    1.938251    2.228581
H     -0.742808   -0.296566    3.024641
H      0.287449   -0.262866    1.579062
H      0.113369    1.829388    3.711748
H      1.996394    2.871112    2.870970
H      0.807833    2.797373    1.547799
H      1.980872    0.825889    0.574779
H      3.078635    0.736084    2.008422
H      3.937065    3.045593    1.436258
H      2.888332    3.074473   -0.018542
H      5.114555    1.003600    0.560113
H      5.298332    2.473226   -0.457194
H      3.342577    1.585654   -1.908293
H      3.488584    0.029044   -1.023370
H      4.698370    0.101741   -3.229934
H      5.760372    1.409134   -2.609591
H      5.499792   -1.419728   -1.369237
H      6.626196   -0.124337   -0.828020
H      6.595094   -1.529270   -3.569799
H      7.689184   -0.168686   -3.180491
H     10.656242   -2.596908   -0.210381
H      9.617729   -3.775602   -1.085747
H      8.877637    0.465154   -1.356897
H     10.186536   -0.185535   -0.336845
