30

C      0.149799    1.199045    1.410820
C     -0.221479   -0.095702    0.656007
O      0.568201   -0.210128   -0.533062
C      1.942596    0.056475   -0.538080
C      2.735169   -0.383555   -1.603170
C      4.112091   -0.140725   -1.597801
C      4.698549    0.547672   -0.531132
C      3.908700    1.005417    0.528673
C      2.524061    0.769590    0.524809
C      1.639603    1.282772    1.589890
O      2.117886    1.845773    2.611349
C     -1.691097   -0.236166    0.295777
C     -2.095318   -1.389206   -0.402962
C     -3.435597   -1.583685   -0.753134
C     -4.392911   -0.625694   -0.400660
C     -4.010622    0.517793    0.302138
C     -2.671944    0.714532    0.653595
O     -3.804334   -2.732398   -1.449704
H     -0.171297    2.087133    0.825130
H     -0.347991    1.212367    2.405111
H      0.035798   -0.950469    1.321301
H      2.286147   -0.923663   -2.426868
H      4.725347   -0.488480   -2.419034
H      5.764832    0.733509   -0.529611
H      4.374974    1.551717    1.338928
H     -1.365271   -2.141496   -0.677307
H     -5.432449   -0.768153   -0.667190
H     -4.754738    1.253816    0.578415
H     -2.422161    1.609020    1.205564
H     -4.766542   -2.903253   -1.717789
