37

C     -3.138379    0.466889   -1.729772
C     -2.689393   -0.539379   -0.648306
C     -3.838760   -0.820743    0.361008
N     -3.533492   -0.344353    1.720003
C     -3.001656    1.023547    1.691521
C     -1.689407    1.107983    0.885311
N     -1.475485   -0.109934    0.081877
S     -0.052348    0.025038   -0.931055
O     -0.123271   -0.975757   -2.051350
O      0.024856    1.413671   -1.505037
C      1.410921   -0.305493    0.017435
C      1.265110   -0.796217    1.326049
C      2.379601   -1.048147    2.125166
C      3.662711   -0.826715    1.631772
C      3.842067   -0.364922    0.321960
C      2.717731   -0.108371   -0.505845
C      2.948313    0.323520   -1.827640
C      4.255285    0.508212   -2.282256
N      5.307989    0.267098   -1.460288
C      5.133796   -0.161031   -0.183967
H     -3.426112    1.440952   -1.283631
H     -4.019341    0.062225   -2.272103
H     -2.340010    0.632892   -2.480292
H     -2.467675   -1.498878   -1.165681
H     -4.795317   -0.361175    0.027615
H     -4.025573   -1.916536    0.405624
H     -2.819383   -0.977347    2.152813
H     -2.823826    1.367620    2.733413
H     -3.761939    1.705689    1.250485
H     -0.841918    1.225638    1.594034
H     -1.712045    2.015018    0.243296
H      0.284825   -0.990204    1.738988
H      2.246907   -1.418513    3.133615
H      4.515398   -1.027301    2.269728
H      2.142033    0.509532   -2.521026
H      4.433010    0.841695   -3.296030
H      6.004776   -0.346206    0.432565
