39

C      6.701180    0.482766   -0.472383
C      5.904723    0.056570   -1.538900
C      4.599555   -0.387987   -1.305208
C      4.086381   -0.418851    0.002186
C      4.887523    0.025579    1.067185
C      6.192174    0.469397    0.829220
C      2.667500   -0.861394    0.251508
N      1.748577    0.282854    0.161706
C      0.362499   -0.143455    0.406501
C     -0.601764    1.053138    0.296917
N     -1.981446    0.703521    0.670696
C     -2.642778   -0.126672   -0.343669
C     -4.119740   -0.171183   -0.067573
C     -4.660488   -1.184854    0.741230
C     -6.029626   -1.203278    1.025662
C     -6.864766   -0.205577    0.515212
C     -6.331367    0.815094   -0.276709
C     -4.962774    0.837303   -0.563494
H      7.710626    0.827867   -0.655077
H      6.297406    0.074155   -2.547347
H      3.989290   -0.706328   -2.141375
H      4.501602    0.029412    2.079105
H      6.807318    0.806499    1.653497
H      2.386908   -1.638924   -0.494888
H      2.598573   -1.331062    1.259011
H      1.815709    0.704135   -0.795227
H      2.021038    0.998898    0.876315
H      0.074356   -0.915872   -0.339846
H      0.279131   -0.585877    1.424799
H     -0.572290    1.475197   -0.731967
H     -0.254619    1.855329    0.983120
H     -1.975428    0.189827    1.583576
H     -2.477712    0.290638   -1.362210
H     -2.229742   -1.159389   -0.331151
H     -4.022904   -1.958348    1.151316
H     -6.442561   -1.989019    1.645008
H     -7.923944   -0.220538    0.737425
H     -6.977813    1.591347   -0.665341
H     -4.560310    1.639081   -1.170297
