8

C     -0.703362   -0.037488   -0.209918
C      0.798535   -0.028204    0.071537
F      1.035483    0.252852    1.405683
F      1.415479    0.932348   -0.709612
F      1.340262   -1.264066   -0.233424
Cl    -1.520004   -1.282982    0.771418
Br    -1.489687    1.691149    0.187638
H     -0.876706   -0.263609   -1.283322
