27

C     -3.068994   -1.876210   -0.776862
C     -2.455670   -0.582356   -0.346002
N     -3.200107    0.354648    0.175884
C     -2.682975    1.677316    0.582100
C     -1.239849    1.612787    1.137732
C     -0.432010    0.669769    0.303739
C     -1.000470   -0.389226   -0.363991
N     -0.062925   -1.211223   -0.888390
C      1.115692   -0.658971   -0.534106
C      0.928849    0.485960    0.207943
C      1.997054    1.203019    0.740644
C      3.296157    0.730668    0.479824
C      3.496153   -0.443200   -0.288803
C      2.391833   -1.152401   -0.800209
O      4.783772   -0.909698   -0.542158
H     -4.177238   -1.799961   -0.789792
H     -2.771404   -2.681119   -0.072810
H     -2.722243   -2.135556   -1.798923
H     -3.360161    2.118554    1.343137
H     -2.690679    2.344471   -0.306892
H     -1.261219    1.237472    2.183043
H     -0.782128    2.624817    1.126017
H     -0.213870   -2.100063   -1.415398
H      1.836190    2.093790    1.333999
H      4.146603    1.270323    0.876206
H      2.528895   -2.058021   -1.377272
H      5.600742   -0.425590   -0.188660
