33

C     -0.128701   -2.072458   -1.299039
C     -0.524854   -0.796893   -0.581235
C      0.355967    0.320246   -0.561334
C     -0.015298    1.477127    0.136153
C     -1.238536    1.558340    0.789030
C     -2.146815    0.490774    0.741098
C     -1.809045   -0.680032    0.025568
C     -2.812312   -1.809800   -0.055540
O     -3.390676    0.563213    1.392964
C     -3.851066    1.681349    2.145391
C      1.705372    0.326829   -1.256258
C      2.873152    0.139067   -0.266447
C      4.178675    0.310991   -0.998841
O      4.645853   -0.633903   -1.689026
O      4.855122    1.527249   -0.964089
N      2.823383   -1.183224    0.362424
H     -0.657988   -2.961395   -0.902701
H      0.946010   -2.300109   -1.160087
H     -0.347626   -1.972357   -2.382493
H      0.653517    2.328764    0.175999
H     -1.473595    2.468807    1.322789
H     -3.839181   -1.486989    0.212256
H     -2.871068   -2.199828   -1.093413
H     -2.511597   -2.625814    0.634406
H     -3.917327    2.578679    1.494587
H     -3.167463    1.875279    2.998759
H     -4.861517    1.457684    2.544461
H      1.760430   -0.425974   -2.069346
H      1.825841    1.309349   -1.765637
H      2.808748    0.918439    0.526568
H      4.493047    2.316425   -0.442432
H      1.988048   -1.220700    0.990472
H      3.651499   -1.279136    0.994995
