22

C      1.807171   -0.759546   -0.430589
C      2.222014    0.498900   -0.478173
C      1.482589    1.380494    0.469947
C      0.328633    0.493881    1.000500
C      0.643956   -0.936341    0.494453
C     -0.684469   -1.353268   -0.202148
C     -0.849460   -0.514287   -1.451089
C     -1.117062    0.729168   -1.046854
C     -1.129873    0.704037    0.470914
C     -1.737259   -0.689492    0.692190
Cl    -1.737793   -1.263079    2.402408
Cl    -3.429393   -0.858351    0.081304
Cl    -2.021315    2.040244    1.256899
Cl    -1.708207    2.020461   -2.088975
Cl    -0.931968   -1.095508   -3.109754
Cl    -0.877781   -3.115151   -0.432817
Cl     1.008057    2.926019   -0.288394
H      2.249688   -1.559643   -1.014678
H      3.065124    0.823776   -1.079085
H      2.169373    1.622117    1.309785
H      0.335379    0.524161    2.113374
H      0.912595   -1.618593    1.330782
