33

C      0.247096    2.449666   -0.363284
C     -0.469419    1.124679   -0.020384
C     -1.212680    1.260305    1.303874
O     -0.820535    2.078142    2.181120
N     -2.316153    0.399680    1.601015
C     -2.942404   -0.360760    0.567055
O     -3.865485   -1.167705    0.860527
N     -2.541090   -0.171944   -0.799430
C     -1.506929    0.787679   -1.084263
O     -1.434357    1.305077   -2.234382
C     -3.299405   -0.790252   -1.890000
C      0.582764    0.004285    0.045319
C      1.221559   -0.313007    1.195502
C      2.304412   -1.356876    1.190942
C      3.296906   -1.107317    0.042386
C      2.623843   -0.645138   -1.275285
C      1.086593   -0.670721   -1.222220
H      1.005297    2.698054    0.410813
H      0.775766    2.372816   -1.338114
H     -0.484235    3.284836   -0.423085
H     -2.697018    0.362721    2.573350
H     -3.647684   -1.803828   -1.599073
H     -2.661849   -0.905480   -2.792451
H     -4.176668   -0.157350   -2.139350
H      1.006706    0.197439    2.127650
H      2.840438   -1.353102    2.164144
H      1.834978   -2.356113    1.060393
H      3.872629   -2.040654   -0.140068
H      4.026453   -0.331895    0.364265
H      2.948422    0.394914   -1.500508
H      2.968353   -1.285342   -2.116182
H      0.734921   -1.725208   -1.231988
H      0.698773   -0.177603   -2.136611
