20

C     -3.377696    0.368385    0.279472
N     -2.035246   -0.189848    0.375178
C     -0.889054    0.493084    0.519653
C      0.143859   -0.417373    0.460774
N     -0.344268   -1.657342    0.245478
C     -1.681674   -1.477942    0.198973
C      1.603921   -0.091834    0.513575
C      2.134268    0.229880   -0.889122
N      3.560316    0.546904   -0.857736
H     -4.124818   -0.370620    0.639215
H     -3.598137    0.626356   -0.777440
H     -3.455766    1.284031    0.903432
H     -0.810022    1.566707    0.635494
H     -2.386265   -2.279957    0.019946
H      2.154930   -0.960602    0.934151
H      1.762886    0.778812    1.186277
H      1.580583    1.097601   -1.310238
H      1.972485   -0.641485   -1.560952
H      4.078884   -0.268440   -0.456980
H      3.710817    1.363682   -0.221704
