37

C     -5.619761    1.783032   -1.377450
C     -4.737712    1.583947   -0.145062
C     -3.921577    0.283645   -0.201735
C     -2.809380    0.329883   -1.257981
N     -1.996849   -0.883561   -1.194621
C     -1.012889   -1.101608   -0.174847
O     -0.798318   -0.217840    0.699488
N     -0.270628   -2.324152   -0.154360
S      0.978639   -2.611692    1.010393
O      0.380734   -2.580078    2.389436
O      1.583550   -3.966356    0.772545
C      2.230628   -1.385746    0.842365
C      2.771446   -1.117378   -0.421586
C      3.758465   -0.139149   -0.571163
C      4.205703    0.591272    0.540772
C      3.673666    0.309710    1.808968
C      2.688328   -0.670806    1.958109
C      5.290855    1.620487    0.387149
O      6.539413    1.045229    0.659514
H     -6.282117    2.660269   -1.218598
H     -6.255091    0.888108   -1.551083
H     -4.999775    1.977826   -2.276824
H     -4.058915    2.456762   -0.027960
H     -5.394579    1.546757    0.751051
H     -4.594564   -0.577738   -0.405216
H     -3.465875    0.121922    0.798722
H     -3.262443    0.401161   -2.269391
H     -2.163020    1.222632   -1.108132
H     -2.100787   -1.593071   -1.954625
H     -0.462077   -3.057236   -0.872454
H      2.429233   -1.667268   -1.289067
H      4.173099    0.049068   -1.554506
H      4.022874    0.848497    2.681311
H      2.287493   -0.871068    2.942471
H      5.278018    2.061800   -0.636460
H      5.119363    2.455382    1.099872
H      6.794848    0.527357   -0.148135
