26

C     -3.561075   -1.142778   -0.584283
C     -2.794991    0.047789   -0.068597
C     -3.497802    1.175245    0.378138
C     -2.790913    2.281054    0.855511
O     -3.413544    3.298167    1.258532
O     -1.463623    2.268886    0.888061
C     -0.745000    1.228381    0.478157
C     -1.382446    0.067227   -0.020778
C     -0.589607   -1.013176   -0.453765
C      0.804455   -0.940356   -0.382376
C      1.433741    0.207172    0.131824
C      0.650746    1.290326    0.543689
O      2.829622    0.325253    0.210828
C      3.725269   -0.739718    0.372288
O      3.332925   -1.862620    0.790298
C      5.181855   -0.505115    0.158498
H     -4.658532   -0.977501   -0.535967
H     -3.322315   -2.037615    0.028101
H     -3.289260   -1.334326   -1.643594
H     -4.581169    1.198236    0.356726
H     -1.034693   -1.913239   -0.856494
H      1.386338   -1.770782   -0.757801
H      1.130891    2.182982    0.925641
H      5.666076   -1.428832   -0.222980
H      5.654361   -0.212910    1.119172
H      5.328690    0.308251   -0.582614
