15

C      0.369947   -0.510767   -0.479871
C     -0.994782   -0.490265    0.240308
C     -1.726931    0.794538   -0.024874
O     -1.562227    1.792527    0.726188
O     -2.553138    0.903207   -1.136426
O     -0.836930   -0.666690    1.625934
C      1.307112    0.531638    0.070065
O      1.926336    0.325670    1.148676
O      1.464067    1.741478   -0.599013
O      0.944538   -1.785778   -0.351158
H      0.194280   -0.300348   -1.561392
H     -1.621508   -1.317474   -0.168155
H     -0.657544   -1.631597    1.775897
H      2.079516    2.459637   -0.236282
H      1.667266   -1.845777   -1.029897
