21

C      1.081975    0.040293   -1.039045
C      0.023328    0.471517   -0.011702
C      0.479078    1.700361    0.736361
O      1.073057    1.587027    1.841528
O      0.288528    2.967245    0.192527
O     -0.223669   -0.600023    0.886767
C     -1.540411   -0.546652    1.402717
C     -2.479646   -1.282153    0.499876
O     -3.378476   -0.656840   -0.123507
O     -2.345598   -2.656912    0.335132
C      2.365051   -0.393585   -0.394143
O      2.503706   -1.582291    0.000532
O      3.390358    0.527021   -0.201563
H      0.677894   -0.801206   -1.643158
H      1.288853    0.878281   -1.740108
H     -0.888921    0.733926   -0.599318
H     -0.165773    3.089837   -0.704491
H     -1.545103   -1.055034    2.389199
H     -1.893772    0.495586    1.585194
H     -2.967587   -3.169525   -0.278489
H      4.257128    0.253127    0.245401
