27

C     -2.995887   -0.882721    0.515921
C     -2.392080    0.239048   -0.292945
C     -3.217026    1.082929   -0.933207
C     -0.883566    0.417330   -0.400617
C     -0.239483    0.623128    0.978466
C      1.253644    0.934889    0.822427
C      1.958609   -0.006985   -0.135306
C      1.279327   -0.713245   -1.066014
C     -0.227566   -0.779284   -1.110848
C      3.464416   -0.043580   -0.138267
O      3.902576   -1.324451    0.219751
H     -2.219795   -1.519069    0.985898
H     -3.633919   -0.461998    1.321665
H     -3.618120   -1.526208   -0.141493
H     -2.832761    1.902898   -1.532042
H     -4.294620    0.963634   -0.866797
H     -0.662565    1.325258   -1.008948
H     -0.352062   -0.288815    1.603921
H     -0.733862    1.467993    1.506064
H      1.735040    0.878796    1.822620
H      1.372895    1.973443    0.444662
H      1.826669   -1.349345   -1.756678
H     -0.555254   -0.800506   -2.172525
H     -0.537439   -1.735528   -0.639341
H      3.838826    0.217656   -1.153639
H      3.870093    0.701693    0.582004
H      4.893909   -1.296959    0.181461
