40

C     -1.878684   -2.278562   -0.126495
C     -2.502304   -1.142156    0.691880
C     -3.967510   -0.862534    0.242629
C     -3.907289    0.527290   -0.290776
C     -4.940360    1.275043   -0.858538
C     -4.664253    2.584727   -1.283641
C     -3.371832    3.122253   -1.129013
C     -2.349518    2.351803   -0.551166
C     -2.650197    1.047220   -0.145884
N     -1.777173    0.117186    0.470251
N     -0.382544    0.288227    0.577095
C      0.397476   -0.382200    1.578603
O     -0.168318   -0.827620    2.613508
C      1.865476   -0.526430    1.429581
C      2.472587   -0.461752    0.162760
C      3.862257   -0.607686    0.019926
C      4.656043   -0.815175    1.167235
C      4.051627   -0.891873    2.425613
C      2.669297   -0.754723    2.557730
Cl     6.406431   -0.981763    1.080627
S      4.578844   -0.508798   -1.595897
O      5.548750   -1.639081   -1.797063
O      3.505759   -0.614157   -2.643394
N      5.396117    1.003464   -1.784043
H     -2.477850   -3.205864   -0.005248
H     -1.843867   -2.006829   -1.203383
H     -0.846858   -2.487531    0.223628
H     -2.489246   -1.405812    1.770893
H     -4.320137   -1.560028   -0.548336
H     -4.658016   -0.900524    1.112472
H     -5.932397    0.856328   -0.967409
H     -5.448485    3.184231   -1.727246
H     -3.166647    4.134448   -1.452472
H     -1.361182    2.770360   -0.419888
H      0.090006    0.986962   -0.037667
H      1.863573   -0.316443   -0.719073
H      4.656077   -1.055948    3.308865
H      2.230588   -0.814024    3.546135
H      6.145981    1.044764   -1.058735
H      4.707778    1.753208   -1.548837
