41

C      1.842683    1.706016   -1.295752
C      0.582341    0.925217   -1.052844
C     -0.703552    1.470025   -0.990693
C     -1.544263    0.406138   -0.711101
C     -0.762723   -0.718266   -0.621300
N      0.537393   -0.412613   -0.811864
C      1.643471   -1.328160   -0.762467
O      1.638209   -2.337683   -1.517971
C      2.773311   -1.114530    0.172349
C      4.008325   -1.750490   -0.048257
C      5.074499   -1.551542    0.834212
C      4.917800   -0.722319    1.948655
C      3.691096   -0.094459    2.182928
C      2.622647   -0.291197    1.303255
Cl     6.256758   -0.474139    3.054218
C     -1.314420   -1.964387   -0.315086
C     -2.702950   -2.043959   -0.113443
C     -3.516800   -0.882623   -0.208780
C     -2.924489    0.358590   -0.508707
O     -4.904676   -0.922737   -0.010377
C     -5.637938   -2.103040    0.299823
C     -1.082484    2.920700   -1.087971
C     -0.820489    3.609051    0.215744
O      0.229408    4.287086    0.368576
O     -1.710426    3.477412    1.277622
H      2.640859    1.048811   -1.697435
H      2.186926    2.160990   -0.344261
H      1.664164    2.508927   -2.039483
H      4.152855   -2.392798   -0.908077
H      6.021896   -2.041974    0.650012
H      3.562790    0.543450    3.048137
H      1.677827    0.193789    1.513567
H     -0.696731   -2.848167   -0.225704
H     -3.134434   -3.007129    0.121545
H     -3.531481    1.251578   -0.576873
H     -6.712190   -1.846178    0.401565
H     -5.282449   -2.531996    1.260471
H     -5.526068   -2.847631   -0.516442
H     -2.155867    3.023735   -1.349933
H     -0.505157    3.409734   -1.900507
H     -2.555670    2.926771    1.188080
