48

C     -6.192771   -1.161485   -1.764663
C     -7.243317   -0.575673   -1.057226
C     -7.021032   -0.058371    0.235053
C     -5.725816   -0.122563    0.798638
C     -4.664266   -0.687265    0.057871
C     -4.912824   -1.226081   -1.215243
I     -3.376437   -2.119583   -2.367098
N     -3.340072   -0.747349    0.605583
C     -2.562285    0.433393    0.850688
O     -2.994191    1.564235    0.496284
C     -1.218779    0.331407    1.512590
C     -0.070769    0.549393    0.519115
C      0.041847   -0.595518   -0.499493
C      1.188991   -0.376765   -1.493862
C      2.532966   -0.472195   -0.831823
O      2.966941   -1.600018   -0.470328
N      3.308696    0.711505   -0.594375
C      4.630926    0.657760   -0.041079
C      4.873816    1.211192    1.226330
C      6.151587    1.156067    1.780440
C      7.205777    0.562335    1.085239
C      6.989684    0.024697   -0.201055
C      5.695765    0.085956   -0.771935
I      5.367515   -0.521094   -2.796388
C      8.109435   -0.587147   -0.941837
O      8.000618   -1.754513   -1.403935
O      9.291551    0.122111   -1.131669
I      9.080182    0.461761    2.080207
I      3.332354    2.117132    2.361826
I     -5.394563    0.486771    2.820802
C     -8.137240    0.540217    0.991677
O     -8.073695    1.742980    1.358804
O     -9.263283   -0.212651    1.312694
I     -9.125223   -0.454108   -2.034304
H     -6.369821   -1.559399   -2.755572
H     -2.882944   -1.681863    0.701429
H     -1.157307    1.107125    2.306126
H     -1.107427   -0.656226    2.010402
H     -0.209864    1.517983   -0.009838
H      0.873070    0.611098    1.099489
H      0.182347   -1.563774    0.029625
H     -0.902400   -0.658358   -1.079055
H      1.129953   -1.155025   -2.285083
H      1.074072    0.609075   -1.994458
H      2.851014    1.644715   -0.700392
H      6.324067    1.567515    2.766645
H     10.068230   -0.287816   -1.636482
H     -9.325077   -1.194187    1.069637
