32

C     -6.131576   -0.057245    0.568727
O     -5.338418   -0.731288   -0.402893
C     -3.939177   -0.658131   -0.472770
C     -3.177235    0.105835    0.431981
C     -1.782816    0.148242    0.322957
C     -1.130272   -0.577693   -0.697250
C     -1.894856   -1.337733   -1.599337
C     -3.287036   -1.374466   -1.482902
C      0.271595   -0.507787   -0.776544
O      0.888542   -1.118362   -1.693208
C      0.979588    0.267336    0.162220
C      0.245394    0.959089    1.138934
O     -1.079528    0.876090    1.183517
C      2.460501    0.370686    0.138186
C      3.258434   -0.783883    0.048369
C      4.652725   -0.680895    0.035401
C      5.266826    0.575658    0.116323
C      4.479658    1.727016    0.212580
C      3.085136    1.627370    0.226552
O      6.655055    0.690260    0.103542
H     -5.989184    1.040746    0.482851
H     -5.858342   -0.399919    1.589098
H     -7.200843   -0.291756    0.389784
H     -3.655503    0.669796    1.221613
H     -1.421519   -1.903530   -2.392405
H     -3.864690   -1.964296   -2.183419
H      0.754191    1.565363    1.877450
H      2.803610   -1.765654    0.005090
H      5.254484   -1.578231   -0.032879
H      4.949096    2.700533    0.275555
H      2.493198    2.531900    0.293207
H      7.252960   -0.125051    0.035211
