20

C     -1.025816   -1.563434   -0.074014
C      0.348220   -1.330749   -0.004161
C      0.856791   -0.019894    0.031798
C     -0.046032    1.068649   -0.037317
C     -1.428923    0.819780   -0.088550
C     -1.929796   -0.492699   -0.107550
N     -3.347043   -0.738714   -0.170749
O     -4.158208    0.210132   -0.199303
O     -3.832863   -2.026066   -0.197503
N      0.423066    2.425301   -0.095356
O     -0.227064    3.336777    0.457065
O      1.448318    2.763910   -0.948196
N      2.270924    0.200831    0.197128
N      3.200806   -0.840462    0.037567
H     -1.380886   -2.585726   -0.091963
H      1.011413   -2.184194    0.041590
H     -2.114227    1.656471   -0.140120
H      2.624737    1.147769    0.460560
H      3.150417   -1.432206    0.897798
H      4.156165   -0.415475    0.031276
