31

C     -4.734336    0.403867    0.329733
C     -4.300249   -0.917171    0.321916
C     -2.935750   -1.213242    0.278392
C     -1.961512   -0.179670    0.241161
C     -2.429775    1.160962    0.249992
C     -3.806008    1.439782    0.294016
C     -1.525893    2.217773    0.214975
C     -0.159862    1.983402    0.171092
C      0.367686    0.670876    0.160159
C     -0.548355   -0.426488    0.195769
C     -0.025928   -1.734752    0.184991
C      1.339009   -1.991734    0.141240
C      2.261020   -0.922777    0.105575
C      3.654539   -1.159519    0.060785
C      4.559765   -0.104309    0.025736
C      4.103470    1.204253    0.034335
C      2.737452    1.471604    0.078064
C      1.779593    0.422303    0.114824
O      1.719585   -3.339359    0.135312
H     -5.793234    0.625828    0.363577
H     -5.025980   -1.720133    0.349822
H     -2.686588   -2.259812    0.275355
H     -4.164357    2.462724    0.300812
H     -1.878895    3.243122    0.221590
H      0.453459    2.866088    0.146529
H     -0.656923   -2.605653    0.210131
H      4.077963   -2.149593    0.051714
H      5.623353   -0.303914   -0.008357
H      4.813876    2.020934    0.006872
H      2.474264    2.514115    0.081623
H      2.668610   -3.679508    0.105730
