20

C      1.312329    0.388316    0.918336
C     -0.033785    0.290467    0.553219
C     -0.392498   -0.199467   -0.717057
C      0.617177   -0.585339   -1.605287
C      1.963252   -0.488136   -1.241869
C      2.326185   -0.000072    0.024537
N      3.712959    0.099324    0.397166
O      4.041063    0.532380    1.521393
O      4.701964   -0.281836   -0.480622
O     -1.724495   -0.321184   -1.140074
P     -3.097261    0.097816   -0.188342
O     -4.354219   -0.179947   -0.980809
O     -3.034976    1.742876    0.203353
O     -3.113437   -0.825543    1.230008
H      1.559942    0.768411    1.901222
H     -0.781701    0.599524    1.268822
H      0.356247   -0.963957   -2.585577
H      2.719226   -0.795293   -1.952821
H     -3.786930    1.881170    0.832876
H     -2.991043   -1.759510    0.924081
