14

C     -0.190901    1.331099   -0.379013
N      0.081977   -0.115293   -0.375422
C      1.248004   -0.414951    0.471402
C     -1.098092   -0.858500    0.095324
H      0.688995    1.890578   -0.766192
H     -1.051259    1.561562   -1.045203
H     -0.424487    1.697702    0.645615
H      0.296046   -0.416359   -1.355769
H      1.066072   -0.111009    1.526555
H      2.147633    0.120575    0.095874
H      1.474714   -1.503612    0.447706
H     -0.903580   -1.953249    0.066483
H     -1.364206   -0.570457    1.136977
H     -1.970916   -0.658085   -0.564338
