26

C     -3.696125    0.234861    0.380416
C     -2.974097   -1.104333    0.234593
C     -1.468283   -1.000610    0.521734
C     -0.716171   -0.203440   -0.558562
C      0.810539   -0.317547   -0.422918
C      1.351399    0.427421    0.809819
C      2.882437    0.368973    0.896031
C      3.532680    1.182740   -0.180479
O      3.586967    2.437510   -0.077640
O      4.051299    0.554161   -1.308212
H     -4.790029    0.077694    0.272698
H     -3.499402    0.675839    1.380726
H     -3.369857    0.944578   -0.407798
H     -3.420716   -1.821582    0.956945
H     -3.142460   -1.509026   -0.787030
H     -1.056657   -2.032659    0.564205
H     -1.317971   -0.534005    1.518638
H     -1.009293    0.867588   -0.518716
H     -0.999970   -0.595143   -1.559887
H      1.106323   -1.388649   -0.378743
H      1.264086    0.118133   -1.339184
H      1.018131    1.488585    0.791581
H      0.943750   -0.041471    1.730117
H      3.203340    0.764229    1.884095
H      3.227356   -0.685807    0.831168
H      4.482725    1.091960   -2.050335
