20

C     -0.275842   -0.520228    1.485009
C     -0.321668    0.190813    0.113935
C     -1.158462    1.484965    0.274816
C     -0.995714   -0.714002   -0.951412
O     -2.332416   -0.992535   -0.621805
C      1.101166    0.539048   -0.340790
O      1.390806    1.738356   -0.607200
C      2.169164   -0.479089   -0.503769
O      1.936555   -1.698685   -0.299163
O      3.453876   -0.103093   -0.891876
H      0.329573    0.069015    2.207464
H      0.159707   -1.536798    1.406616
H     -1.297405   -0.632945    1.907682
H     -0.684782    2.168080    1.013211
H     -2.185203    1.258234    0.634500
H     -1.245901    2.020465   -0.695516
H     -0.433698   -1.664648   -1.089754
H     -0.984483   -0.194310   -1.934069
H     -2.325422   -1.795751   -0.038657
H      3.700148    0.863106   -1.069221
