17

C     -1.817122   -1.174936   -0.077283
C     -2.301428    0.081103    0.344375
C     -1.423581    1.169294    0.484345
C     -0.075848    0.960821    0.197353
C      0.406132   -0.260161   -0.210664
C     -0.451053   -1.352124   -0.360784
C      1.889403   -0.185033   -0.455179
O      2.198047    1.180998   -0.152451
C      1.048495    1.858726    0.232678
O      1.016191    3.074281    0.557601
O      2.580932   -1.029929    0.422598
H     -2.500862   -2.006898   -0.184691
H     -3.354511    0.208052    0.559068
H     -1.784320    2.138532    0.803266
H     -0.074195   -2.312457   -0.687669
H      2.135194   -0.404747   -1.518626
H      2.508524   -1.945521    0.046062
