14

C      0.473848    0.576268   -0.377580
C     -0.738208   -0.003329    0.392708
C     -1.007771   -1.433968    0.006813
O     -0.872752   -2.354578    0.855329
O     -1.395776   -1.749322   -1.289933
O     -1.887886    0.776467    0.176631
C      1.744442   -0.162592   -0.048971
O      2.339790   -0.824889   -0.939283
O      2.262150   -0.128320    1.240350
O      0.631532    1.946384   -0.104732
H      0.279547    0.476689   -1.468747
H     -0.514450    0.032408    1.482190
H     -2.060054    0.799269   -0.801450
H      0.745587    2.049514    0.876675
