33

C     -3.145175   -0.338640   -0.453335
C     -1.692437   -0.282040    0.079493
C     -0.742140    0.199167   -1.056200
C      0.695170    0.346110   -0.607938
C      1.580158   -0.741885   -0.696236
C      2.907313   -0.616520   -0.261613
C      3.357903    0.601516    0.262615
C      2.479870    1.689883    0.349658
C      1.157088    1.563678   -0.082563
O      4.677577    0.722877    0.694001
O      3.782630   -1.697715   -0.347058
C     -1.280017   -1.694922    0.468021
O     -0.624487   -1.903942    1.525553
O     -1.558035   -2.764483   -0.380479
N     -1.586135    0.600483    1.277436
N     -2.194719    1.867342    1.110425
O     -0.002209    0.404116    0.000000
H     -3.464229    0.642383   -0.863732
H     -3.844097   -0.633194    0.358854
H     -3.239220   -1.073215   -1.281846
H     -1.091639    1.160462   -1.487946
H     -0.784920   -0.521826   -1.903439
H      1.238385   -1.687176   -1.099755
H      2.821880    2.634763    0.752431
H      0.496586    2.417441   -0.010042
H      5.032010    1.591290    1.077584
H      3.485940   -2.591785   -0.720579
H     -1.262607   -3.704615   -0.146177
H     -2.057517    0.143096    2.094547
H     -3.236205    1.770494    1.142007
H     -1.908931    2.300974    0.206314
H      0.784130   -0.197777    0.000000
H     -0.781920   -0.206339    0.000000
