46

C     -2.445417   -2.500889   -3.549439
O     -1.544747   -1.652669   -2.845324
C     -1.829146   -1.050398   -1.611356
C     -3.053193   -1.232999   -0.927013
C     -3.283880   -0.600391    0.323594
C     -2.267432    0.196884    0.888521
C     -1.075971    0.372334    0.185072
C     -0.866656   -0.237713   -1.017248
O      0.387095    0.044145   -1.517382
C      1.100736    0.904229   -0.626472
C      0.135096    1.152605    0.579022
C     -0.176785    2.644759    0.793021
O     -0.745056    3.222231   -0.353955
C      2.392127    0.256249   -0.182660
C      3.548232    1.036931   -0.018993
C      4.749367    0.454575    0.432466
C      4.779487   -0.915060    0.730563
C      3.622999   -1.691773    0.585712
C      2.435511   -1.110191    0.139000
O      5.965200   -1.497387    1.175544
O      5.926356    1.201178    0.599359
C      6.039443    2.596729    0.339983
C     -4.545052   -0.777297    1.084229
C     -5.708624   -1.135497    0.522807
C     -6.945079   -1.288843    1.307242
O     -6.953151   -1.108588    2.554362
O     -8.123295   -1.640343    0.661788
H     -1.969122   -2.829259   -4.495774
H     -2.680324   -3.398543   -2.939402
H     -3.377915   -1.949174   -3.793123
H     -3.802667   -1.884203   -1.350450
H     -2.403681    0.678707    1.848957
H      1.320381    1.849391   -1.171038
H      0.541683    0.728044    1.524330
H      0.769223    3.177951    1.026014
H     -0.849683    2.772261    1.672016
H     -1.719700    3.038003   -0.316217
H      3.504337    2.094499   -0.242500
H      3.642584   -2.747457    0.824581
H      1.549075   -1.725498    0.048723
H      6.019780   -2.483858    1.400914
H      5.344356    3.164260    0.994278
H      5.817250    2.805872   -0.727769
H      7.077158    2.922827    0.557248
H     -4.520265   -0.558462    2.145813
H     -5.780636   -1.298168   -0.543434
