47

C      2.226057   -3.101344    3.440928
O      1.291967   -2.504079    2.548120
C      1.649533   -1.732917    1.433072
C      2.991232   -1.467192    1.077157
C      3.297691   -0.663280   -0.046994
C      2.241159   -0.148658   -0.835081
C      0.925485   -0.443266   -0.473310
C      0.646366   -1.195261    0.630739
O     -0.711607   -1.324889    0.825438
C     -1.431841   -0.646988   -0.205357
C     -0.343769    0.009714   -1.119131
C     -0.433141   -0.464365   -2.578757
O     -1.592884    0.041921   -3.184166
C     -2.360996    0.386479    0.388063
C     -3.641623    0.575057   -0.156359
C     -4.504836    1.561870    0.360921
C     -4.065785    2.367623    1.427471
C     -2.784876    2.189632    1.958247
C     -1.934423    1.212037    1.440373
O     -4.888183    3.354320    1.971166
O     -5.792846    1.768713   -0.158587
C     -6.357503    1.029648   -1.236857
C      4.724319   -0.417454   -0.373167
C      5.150278    0.601300   -1.132181
C      6.577596    0.812430   -1.420637
O      6.928109    1.798134   -2.122192
O      7.543626   -0.062893   -0.930342
H      1.673079   -3.651042    4.229835
H      2.848274   -2.317746    3.922656
H      2.872201   -3.819403    2.893096
H      3.799205   -1.868468    1.674904
H      2.423160    0.446693   -1.718234
H     -2.017769   -1.412906   -0.760077
H     -0.386097    1.121725   -1.084817
H     -0.403601   -1.577865   -2.636778
H      0.441695   -0.079562   -3.144255
H     -2.317291   -0.615864   -3.019326
H     -3.957733   -0.047925   -0.982093
H     -2.445668    2.816147    2.773487
H     -0.941239    1.102428    1.857744
H     -5.824464    3.527664    1.625818
H     -6.418252   -0.046984   -0.971560
H     -5.745946    1.164529   -2.153980
H     -7.382356    1.404516   -1.435475
H      5.456579   -1.084569    0.066985
H      4.450966    1.319805   -1.536856
H      8.526150    0.082535   -1.129652
