44

C      4.973271    0.652642    0.644624
C      6.160719    0.568582   -0.088843
C      6.142916    0.742134   -1.479505
C      4.932011    0.996909   -2.131539
C      3.743202    1.081431   -1.400285
C      3.757432    0.921589   -0.004974
C      2.473677    0.976857    0.779090
C      1.842807   -0.417941    0.877818
C      0.506516   -0.386354    1.645491
C     -0.159184   -1.780131    1.643766
C     -1.520652   -1.794241    2.358607
C     -2.534909   -0.921133    1.673872
C     -3.045042   -1.248735    0.479682
C     -4.050577   -0.430521   -0.240424
C     -4.822633   -1.041556   -1.242875
C     -5.774243   -0.305965   -1.955423
C     -5.959673    1.054961   -1.683456
C     -5.185932    1.676017   -0.699332
C     -4.233525    0.943662    0.016380
O     -6.905018    1.798078   -2.386750
O      0.696736    0.075362    2.960916
O      7.319535    0.660670   -2.220693
H      5.000595    0.506760    1.717466
H      7.092468    0.365203    0.423425
H      4.911826    1.125951   -3.206238
H      2.812259    1.269629   -1.920774
H      1.762762    1.676410    0.286653
H      2.676095    1.374106    1.797792
H      1.661945   -0.803387   -0.150297
H      2.550292   -1.110557    1.385595
H     -0.169353    0.325514    1.123170
H      0.511063   -2.508138    2.151136
H     -0.290630   -2.130180    0.596469
H     -1.903162   -2.837354    2.398511
H     -1.392973   -1.452242    3.408124
H     -2.870578   -0.038182    2.200086
H     -2.736544   -2.183622    0.025091
H     -4.694581   -2.093204   -1.469496
H     -6.365585   -0.794633   -2.719330
H     -5.317578    2.730786   -0.493516
H     -3.631983    1.464870    0.747850
H     -7.480387    1.377052   -3.106880
H      1.304296   -0.563618    3.417978
H      8.212320    0.476519   -1.778075
