21

C     -3.143299   -0.247312    0.184101
C     -2.720699    0.853105    0.932403
C     -1.364634    1.183355    0.991467
C     -0.416072    0.411095    0.300491
C     -0.843083   -0.703255   -0.460946
C     -2.212929   -1.024192   -0.511143
C      0.119282   -1.457618   -1.152835
O     -0.215888   -2.456172   -1.846747
C      1.466385   -1.101245   -1.073852
C      1.858454    0.002047   -0.299552
N      0.909531    0.733922    0.357815
C      3.292437    0.371998   -0.219196
O      4.082715    0.019181   -1.134757
O      3.801974    1.092670    0.859800
H     -4.195291   -0.498545    0.141761
H     -3.445961    1.451839    1.468187
H     -1.054319    2.039978    1.577004
H     -2.566351   -1.871436   -1.086001
H      2.204595   -1.690940   -1.605138
H      1.194669    1.580631    0.898990
H      3.248485    1.310894    1.678149
