26

C     -3.560338    0.403205    0.105579
C     -3.120909   -0.809556    0.663842
C     -1.771509   -1.135912    0.538435
C     -0.883115   -0.310566   -0.107477
C     -1.291151    0.905412   -0.668088
C     -2.652003    1.257102   -0.556038
O     -0.385709    1.742861   -1.315130
C      0.353256   -0.932963   -0.038124
C      0.144454   -2.111327    0.671692
N     -1.157151   -2.232558    1.014274
C      1.677445   -0.424350   -0.527477
C      2.284120    0.560489    0.478772
N      3.568774    1.070240    0.001102
H     -4.602064    0.685193    0.186220
H     -3.810062   -1.467349    1.177525
H     -3.007602    2.188517   -0.977570
H     -0.677747    2.624275   -1.720361
H      0.906401   -2.834766    0.931375
H     -1.590995   -3.015455    1.552196
H      2.369423   -1.282968   -0.667950
H      1.548284    0.065683   -1.515333
H      2.431681    0.048179    1.455872
H      1.587087    1.413257    0.637179
H      3.957300    1.734989    0.708478
H      3.439165    1.577346   -0.904516
H      4.242965    0.281023   -0.127992
