15

C      1.097217   -1.075345    0.165045
C      1.977334   -0.314544   -0.777573
O      1.825704   -0.434422   -2.021841
O      2.984403    0.504556   -0.283308
N     -0.316872   -0.814243   -0.117504
C     -0.945517    0.296246    0.169402
N     -0.283975    1.396405    0.810318
N     -2.331906    0.425530   -0.160165
H      1.335819   -0.833103    1.222987
H      1.302730   -2.158800    0.027441
H     -0.850521   -1.587193   -0.577109
H     -0.816846    2.268973    1.021157
H      0.720937    1.372427    1.085851
H     -2.848365    1.305002    0.062763
H     -2.850143   -0.351490   -0.627463
