25

C      4.312536   -0.254868   -0.391128
N      2.857514   -0.139029   -0.271485
C      2.311288    0.387993    0.864302
C      0.925160    0.473129    1.013081
C      0.082757    0.002082   -0.005465
C      0.665121   -0.553483   -1.154831
C      2.055640   -0.622425   -1.266181
C     -1.394188    0.083595    0.132472
C     -2.197899    0.431051   -0.970283
C     -3.587785    0.507555   -0.837865
C     -4.190680    0.238010    0.392648
C     -3.404854   -0.108352    1.493929
C     -2.014420   -0.185473    1.367685
H      4.627259   -0.195195   -1.455645
H      4.643741   -1.226920    0.031127
H      4.820530    0.569981    0.154183
H      2.946890    0.751031    1.663515
H      0.517453    0.917590    1.912257
H      0.051394   -0.952090   -1.952842
H      2.488304   -1.068106   -2.154270
H     -1.751015    0.660783   -1.929353
H     -4.197600    0.779502   -1.689760
H     -5.266747    0.297444    0.492764
H     -3.873593   -0.320890    2.446120
H     -1.426806   -0.472915    2.230426
