34

C      5.234753   -1.349550    2.555787
C      5.412578   -0.298315    1.652446
C      4.368438    0.086855    0.806587
C      3.134029   -0.579781    0.861677
C      2.078517   -0.202255    0.017229
C      0.840868   -0.867696    0.083167
C      0.683434   -1.938207    0.975595
C      1.727801   -2.321257    1.820891
C      2.955537   -1.646859    1.774784
C      4.012007   -2.023953    2.618570
N     -0.247570   -0.512558   -0.786815
C     -0.530196    0.828273   -1.216641
O      0.029087    1.812885   -0.662352
C     -1.571634    1.070986   -2.266425
N     -2.909438    1.056273   -1.677292
C     -4.081368    1.250701   -2.479121
O     -3.976850    1.467107   -3.717045
C     -5.436947    1.246562   -1.842731
N     -5.741787    2.571968   -1.315995
H      6.047092   -1.643364    3.207942
H      6.362099    0.219300    1.607634
H      4.524664    0.904375    0.112835
H      2.230328    0.589809   -0.705336
H     -0.258136   -2.470956    1.023020
H      1.576118   -3.145126    2.508156
H      3.892867   -2.838521    3.323076
H     -0.928578   -1.259952   -1.052403
H     -1.390768    2.054561   -2.751954
H     -1.499064    0.279553   -3.043058
H     -3.026252    0.903223   -0.649088
H     -5.469444    0.492631   -1.025092
H     -6.200868    0.965027   -2.600312
H     -6.720742    2.550427   -0.948962
H     -5.120575    2.747834   -0.492594
