23

C     -2.568360   -0.389583    1.374317
C     -2.923365   -1.480153    0.549392
C     -2.150010   -1.799972   -0.581702
C     -1.036467   -1.006694   -0.855092
C     -0.694201    0.054127   -0.055889
C     -1.437781    0.392411    1.075042
C      0.447948    0.610371   -0.597923
C      0.754671   -0.167758   -1.710417
N     -0.161878   -1.150396   -1.866105
C      1.256842    1.747460   -0.053876
C      2.182181    1.254377    1.014727
O      1.857980    1.368123    2.226892
N      3.411676    0.618034    0.667148
H     -3.169070   -0.154822    2.243332
H     -3.794298   -2.075563    0.790482
H     -2.410708   -2.637035   -1.216356
H     -1.158137    1.227002    1.704600
H      1.607594   -0.028733   -2.361955
H     -0.175239   -1.879872   -2.613196
H      1.847594    2.213445   -0.871382
H      0.579574    2.526890    0.356815
H      3.683445    0.496695   -0.333715
H      4.050009    0.261647    1.412571
