29

C     -4.245320    0.219911    1.760870
C     -4.347447   -0.996822    1.081732
C     -3.376731   -1.358972    0.142590
C     -2.287362   -0.512156   -0.115715
C     -2.203027    0.720969    0.558662
C     -3.175861    1.079385    1.496988
N     -1.313358   -0.894750   -1.102397
C      0.034698   -0.396129   -1.137143
C      0.573984   -0.055214   -2.318211
C      1.951352    0.461875   -2.413954
O      2.424700    0.778908   -3.537526
C      2.764099    0.610951   -1.194569
C      2.226397    0.228881    0.046670
C      0.852443   -0.321284    0.103385
O      0.389136   -0.754794    1.192984
C      3.015070    0.372895    1.198216
C      4.307804    0.890436    1.095888
C      4.802236    1.257920   -0.157174
N      4.028303    1.111499   -1.265218
H     -4.998108    0.499581    2.486509
H     -5.179991   -1.658976    1.281523
H     -3.467829   -2.303710   -0.378584
H     -1.395351    1.410807    0.351523
H     -3.103852    2.026948    2.015113
H     -1.618411   -1.535443   -1.870593
H     -0.015925   -0.138646   -3.223357
H      2.634232    0.088417    2.171044
H      4.921627    1.005296    1.979893
H      5.802493    1.659473   -0.249150
