31

C     -1.695634    2.205025    1.305861
C     -2.990440    2.235911    0.743205
C     -3.436509    1.183121   -0.075925
C     -2.557770    0.128213   -0.318552
C     -1.292055    0.106592    0.211251
C     -0.832161    1.125169    1.048514
C     -0.705347   -1.073837   -0.210020
C     -1.674336   -1.727899   -0.964016
N     -2.800112   -0.982351   -1.036028
C      0.638758   -1.589163    0.107805
C      1.803043   -0.925784    0.054751
C      2.848607   -1.841337    0.525431
O      4.076833   -1.574625    0.600449
N      2.302005   -3.106639    0.861187
C      0.919952   -2.942902    0.589731
O      0.063681   -3.849470    0.764246
C      2.035845    0.436021   -0.469738
C      3.042050    1.295774   -0.086582
N      2.948317    2.434522   -0.801358
C      1.887659    2.234509   -1.612038
N      1.315925    1.029050   -1.437117
H     -1.367786    3.014078    1.945447
H     -3.647700    3.069965    0.951774
H     -4.433030    1.190001   -0.498204
H      0.151253    1.088290    1.497016
H     -1.559198   -2.693530   -1.439073
H     -3.682483   -1.230140   -1.536501
H      2.798568   -3.956176    1.209939
H      3.792239    1.115303    0.671530
H      1.541380    2.962784   -2.333330
H      0.508446    0.639525   -1.971330
