27

C     -2.985997    0.170483   -2.050874
C     -2.809517   -0.005645   -0.537831
C     -1.360336   -0.274521   -0.183700
C     -0.366878    0.697232   -0.410587
C      0.972831    0.437265   -0.085234
C      1.329696   -0.812416    0.473754
C      0.340328   -1.779535    0.696613
C     -0.991575   -1.512868    0.369888
C      2.670299   -1.071825    0.798926
C      3.652358   -0.097639    0.571254
C      3.295618    1.136388    0.018413
C      1.963803    1.405324   -0.309189
O      4.985319   -0.346233    0.890889
C     -3.330378    1.183821    0.223719
O     -3.869017    1.019720    1.350113
O     -3.175574    2.472107   -0.276153
H     -2.634157   -0.740288   -2.581180
H     -2.411746    1.043846   -2.426702
H     -4.059946    0.320488   -2.293172
H     -3.431779   -0.882307   -0.248044
H     -0.637931    1.654514   -0.839464
H      0.596393   -2.742275    1.122907
H     -1.736646   -2.277697    0.550426
H      2.954244   -2.025888    1.227499
H      4.053353    1.889300   -0.157825
H      1.709182    2.367933   -0.736546
H      5.278055   -1.229282    1.292662
