50

C     -1.474286   -0.520704   -2.272662
C     -1.112169   -1.395380   -1.056546
C     -2.360004   -2.133422   -0.506935
C     -3.419713   -1.209635    0.046837
C     -4.425345   -0.699056   -0.788867
C     -5.396267    0.166724   -0.278106
C     -5.382242    0.535101    1.071889
C     -4.377421    0.020703    1.913128
C     -3.406207   -0.845540    1.402759
O     -6.377781    1.408051    1.535178
C     -6.483424    1.865481    2.879423
N     -0.441155   -0.617746    0.014428
C      0.867992   -0.038392   -0.355062
C      1.961521   -1.097215   -0.648961
C      3.306284   -0.436676   -0.892878
C      3.988457    0.224313    0.145760
C      5.224776    0.853369   -0.088800
C      5.796173    0.790930   -1.371472
C      5.118692    0.137464   -2.408164
C      3.881262   -0.464114   -2.174159
O      7.031678    1.390179   -1.614289
N      5.933446    1.510568    0.977201
C      5.300265    2.280864    2.006784
O      4.076641    2.573376    1.944887
O      2.060701   -2.056029    0.376134
H     -2.126801   -1.082740   -2.974073
H     -2.000390    0.403606   -1.953356
H     -0.560983   -0.240411   -2.836493
H     -0.437260   -2.200530   -1.414282
H     -2.039459   -2.844617    0.285953
H     -2.800655   -2.761698   -1.312353
H     -4.457758   -0.970293   -1.836617
H     -6.164460    0.554281   -0.935266
H     -4.337559    0.284026    2.961202
H     -2.640330   -1.229841    2.064987
H     -7.357951    2.542491    2.964336
H     -6.632150    1.004683    3.565084
H     -5.569235    2.427933    3.164289
H     -1.060786    0.176377    0.298991
H     -0.311760   -1.224479    0.857333
H      1.210058    0.601684    0.488773
H      0.763873    0.644632   -1.224632
H      1.674926   -1.638468   -1.573655
H      3.566909    0.233251    1.141339
H      5.550897    0.097317   -3.399984
H      3.375987   -0.957416   -2.995204
H      7.464182    1.363278   -2.530325
H      6.978036    1.501130    0.966581
H      5.890395    2.649745    2.835129
H      2.130398   -1.577157    1.242307
