16

C     -0.371387   -0.280374    0.449006
C      0.503400    0.649567   -0.425956
C      1.966540    0.392988   -0.186107
O      2.659281   -0.190341   -1.061005
O      2.554990    0.774460    1.013601
O      0.217345    1.989767   -0.119794
C     -0.097805   -1.731410    0.139975
O     -0.377477   -2.207507   -0.992361
O      0.477507   -2.549712    1.103993
N     -1.799325    0.010206    0.260397
H     -0.117180   -0.098822    1.518595
H      0.265576    0.456696   -1.499420
H      0.573691    2.538263   -0.867275
H     -2.014543    0.979997    0.586968
H     -2.375405   -0.654565    0.827109
H     -2.065210   -0.079212   -0.747727
