50

C      4.026666   -0.800584   -1.534402
C      5.105614   -1.494852   -2.086809
C      6.414550   -1.035382   -1.895874
C      6.640190    0.126749   -1.140489
C      5.557148    0.822215   -0.590037
C      4.237272    0.372431   -0.789446
C      3.073049    1.086381   -0.207459
C      3.100165    2.468431    0.040893
C      1.976465    3.089724    0.587264
O      2.009641    4.330916    0.805622
C      0.830451    2.323003    0.878735
C     -0.347534    2.872299    1.434595
C     -1.448071    2.041862    1.689998
C     -1.402410    0.675253    1.401177
C     -0.230085    0.126667    0.853440
C      0.876857    0.938803    0.591652
O      1.971425    0.393031    0.070819
O     -2.542054   -0.096378    1.674548
C     -2.700361   -1.477903    1.344239
C     -4.039757   -2.003348    1.901813
C     -5.240420   -1.292194    1.227058
C     -4.854548   -0.642988   -0.122775
C     -3.758836   -1.485570   -0.818818
O     -2.564827   -1.666840   -0.059954
C     -3.390044   -0.860731   -2.131714
O     -2.634472    0.146599   -2.165649
O     -3.911061   -1.368182   -3.315453
O     -5.987094   -0.561121   -0.950882
O     -5.810606   -0.335481    2.086482
O     -4.129373   -3.387947    1.675209
O     -0.433043    4.232576    1.733799
O      7.932434    0.603740   -0.922161
O      7.489030   -1.729429   -2.449945
H      3.024132   -1.175177   -1.701135
H      4.922444   -2.391596   -2.664953
H      5.759865    1.697469    0.012545
H      3.967364    3.066544   -0.208092
H     -2.351707    2.462647    2.113494
H     -0.162503   -0.928951    0.629054
H     -1.888839   -2.047450    1.847104
H     -4.072775   -1.813096    3.001001
H     -6.025773   -2.056368    1.030541
H     -4.448186    0.382499    0.045557
H     -4.179392   -2.493711   -1.031340
H     -6.547748    0.177337   -0.595642
H     -5.108463    0.331771    2.304311
H     -3.534144   -3.828722    2.336614
H     -1.271482    4.639013    2.132277
H      8.749346    0.136558   -1.296986
H      7.351498   -2.570519   -2.998118
