34

C      2.759998   -0.632916    0.935341
C      1.397983   -0.210940    0.358535
C      1.588995    0.399442   -1.054365
C      0.222972    0.824566   -1.631409
C     -0.700148   -0.407602   -1.735493
C     -0.914629   -1.028609   -0.330122
C      0.461850   -1.444431    0.253968
C     -1.557666    0.034422    0.599606
C     -0.636189    1.279887    0.706821
C     -0.422859    1.877532   -0.707015
C      0.737456    0.847624    1.281022
N     -1.236037    2.293755    1.581584
C     -1.833155   -2.257893   -0.435273
H      3.242348   -1.390975    0.281412
H      2.635173   -1.072423    1.948346
H      3.438221    0.243805    1.014811
H      2.065249   -0.341738   -1.734276
H      2.262803    1.283761   -1.005182
H      0.369836    1.262103   -2.642909
H     -1.675830   -0.104395   -2.176556
H     -0.245028   -1.155406   -2.422582
H      0.929105   -2.218147   -0.396280
H      0.322804   -1.899234    1.260736
H     -1.725131   -0.398368    1.611388
H     -2.551949    0.335477    0.199821
H     -1.395557    2.203655   -1.137681
H      0.229971    2.776595   -0.647873
H      1.399581    1.737563    1.375592
H      0.602459    0.426900    2.302817
H     -2.173057    2.565453    1.203174
H     -1.401614    1.878975    2.527924
H     -1.993855   -2.711353    0.566464
H     -2.822196   -1.970961   -0.852894
H     -1.381906   -3.026122   -1.099452
