27

C     -1.365158   -1.667817    0.014018
C     -1.440314   -0.274777    0.669291
C     -0.174803    0.014648    1.515542
C      1.094558    0.088293    0.699456
C      1.516808    1.311013    0.149301
C      2.684152    1.373769   -0.617780
C      3.439393    0.219358   -0.840002
C      3.029361   -0.999761   -0.294072
C      1.862699   -1.067077    0.473637
N     -1.669849    0.793424   -0.330876
C     -3.027056    0.757907   -0.888925
H     -2.358673   -1.967915   -0.377564
H     -1.062444   -2.430864    0.762304
H     -0.635064   -1.674442   -0.822568
H     -2.290778   -0.293508    1.389019
H     -0.316321    0.970981    2.065437
H     -0.068859   -0.768912    2.298024
H      0.942624    2.214198    0.313247
H      3.003226    2.317823   -1.040162
H      4.342580    0.269667   -1.434275
H      3.615531   -1.893229   -0.466024
H      1.557367   -2.018927    0.889916
H     -1.545917    1.727914    0.124797
H     -0.981679    0.715062   -1.115838
H     -3.169638   -0.137889   -1.529318
H     -3.790444    0.767213   -0.080554
H     -3.191301    1.653847   -1.526031
