27

C     -1.479436   -1.742311   -1.367748
C     -1.975445   -0.574616   -0.561858
C     -3.343669   -0.255221   -0.551660
C     -3.809761    0.827821    0.196294
C     -2.916952    1.599912    0.940070
C     -1.554373    1.292266    0.939793
C     -1.070392    0.201730    0.189485
O      0.292068   -0.137375    0.166816
C      1.316541    0.568603    0.864239
C      2.680360   -0.083041    0.601147
C      3.059886    0.009019   -0.883353
O      4.326917   -0.551075   -1.099872
O      2.652571   -1.431635    0.991600
H     -1.012235   -2.489904   -0.692632
H     -0.723764   -1.395106   -2.103709
H     -2.304588   -2.237859   -1.922273
H     -4.051219   -0.843631   -1.122609
H     -4.864998    1.068750    0.199353
H     -3.281438    2.438791    1.518936
H     -0.886495    1.907696    1.526548
H      1.107547    0.543706    1.955904
H      1.339452    1.628906    0.529677
H      3.451971    0.465388    1.190671
H      3.049021    1.071030   -1.220498
H      2.320179   -0.549062   -1.496583
H      4.990280    0.110749   -0.771595
H      2.687973   -1.443529    1.983860
