50

C      6.672846   -2.751311   -1.790702
C      6.153081   -1.561509   -0.989016
C      4.786550   -1.096893   -1.512582
C      4.298698    0.198457   -0.839664
C      4.067293    0.093598    0.681089
C      3.079346   -1.005750    1.119951
C      1.681406   -0.914998    0.482496
C      0.943690    0.382106    0.845036
C     -0.498345    0.356968    0.324671
C     -1.230893    1.659534    0.667751
C     -2.674768    1.630373    0.153324
C     -3.410348    2.933036    0.501659
C     -4.834111    2.968742   -0.069494
C     -5.727956    1.967888    0.603469
O     -6.261196    2.257876    1.708756
N     -5.942451    0.678880    0.013656
C     -6.750213   -0.339351    0.682195
C     -6.778345   -1.600744   -0.121107
O     -7.699779   -1.800568   -0.955408
O     -5.757415   -2.532707    0.013811
H      5.961604   -3.601974   -1.722899
H      6.807925   -2.469709   -2.856812
H      7.653636   -3.074675   -1.382642
H      6.068077   -1.868149    0.075037
H      6.887820   -0.730320   -1.062009
H      4.035349   -1.904855   -1.385618
H      4.869176   -0.898404   -2.603791
H      3.360234    0.528283   -1.333587
H      5.046025    1.000544   -1.025025
H      5.039475   -0.082384    1.188114
H      3.709069    1.076965    1.052541
H      2.971349   -0.957396    2.225445
H      3.513111   -2.002693    0.893544
H      1.087572   -1.780297    0.850288
H      1.753115   -1.016496   -0.621021
H      1.471624    1.249282    0.393813
H      0.933519    0.506080    1.950323
H     -0.488293    0.220508   -0.779380
H     -1.039812   -0.500482    0.781996
H     -1.236870    1.798822    1.771424
H     -0.692662    2.516612    0.205956
H     -2.669458    1.493545   -0.950589
H     -3.205136    0.769047    0.614485
H     -2.845802    3.792122    0.077370
H     -3.447267    3.063289    1.605963
H     -4.810178    2.786832   -1.165749
H     -5.256357    3.985382    0.084727
H     -5.488730    0.465798   -0.904409
H     -6.319046   -0.556369    1.682833
H     -7.786158    0.039391    0.819779
