25

C     -2.642983   -0.029830   -1.197240
C     -2.541822    0.405226    0.270236
C     -1.088381    0.700610    0.683178
N     -0.265395   -0.509182    0.610208
C      0.838948   -0.595748   -0.354143
C      2.116331    0.023270    0.229441
C      3.242419    0.007461   -0.807246
O      2.511406   -0.698384    1.366773
N     -0.492879   -1.532634    1.548238
O      0.188196   -2.578945    1.552778
O     -3.353077    1.529150    0.502284
H     -2.218227    0.748630   -1.866495
H     -2.094706   -0.982268   -1.357284
H     -3.707848   -0.191677   -1.467825
H     -2.928600   -0.423265    0.902332
H     -0.669710    1.501120    0.033525
H     -1.072599    1.083002    1.726714
H      1.018420   -1.655826   -0.636524
H      0.557665   -0.060460   -1.287980
H      1.901274    1.082297    0.504958
H      2.944301    0.583795   -1.709010
H      4.155093    0.474716   -0.380406
H      3.481597   -1.036056   -1.104713
H      3.131917   -0.114114    1.876208
H     -3.011341    2.269115   -0.065619
