18

C      2.587640    0.320044    0.151916
C      1.756850    1.130348    0.929904
C      0.367199    1.001020    0.841300
C     -0.204358    0.059545   -0.033217
C      0.642090   -0.756665   -0.807739
C      2.030799   -0.623242   -0.715204
C     -1.706510   -0.087847   -0.118020
C     -2.108181   -1.371268    0.476641
N     -2.424317   -2.381344    0.944775
N     -2.147680   -0.027504   -1.511258
H      3.662884    0.421586    0.222684
H      2.189884    1.858540    1.603509
H     -0.260840    1.634979    1.454748
H      0.225235   -1.495919   -1.480525
H      2.675462   -1.252771   -1.314867
H     -2.208131    0.724536    0.454834
H     -3.193578   -0.063101   -1.529161
H     -1.884448    0.909062   -1.896676
