12

C     -1.511954   -0.468607    0.341347
C     -0.173417    0.131581    0.006019
C     -0.094707    1.114145   -0.897976
C      1.052641   -0.422708    0.621967
O      0.975334   -1.397464    1.417572
O      2.300962    0.122433    0.330276
H     -2.343659    0.229543    0.104197
H     -1.652214   -1.404880   -0.238276
H     -1.567776   -0.701953    1.425527
H      0.856021    1.548132   -1.180347
H     -0.984736    1.503290   -1.376918
H      3.143503   -0.253513    0.748689
