50

C     -0.641461   -2.425719    2.826953
C     -1.267224   -1.893041    1.538340
C     -1.182108   -0.375396    1.417910
O     -1.484785    0.271415    2.408836
C     -0.732239    0.361238    0.121973
C      0.747257    0.856933    0.308746
C      1.796720   -0.227436    0.700671
C      2.203632   -0.098525    2.187690
N      2.960780   -0.179426   -0.226895
C      3.703839   -1.449587   -0.263259
C      3.877197    0.952927   -0.000699
C     -0.905403   -0.598684   -1.088397
C     -2.169790   -1.198260   -1.308935
C     -2.388007   -2.048370   -2.395112
C     -1.360088   -2.303305   -3.300400
C     -0.117072   -1.696226   -3.129233
C      0.108986   -0.842695   -2.045342
C     -1.588002    1.647259   -0.119020
C     -1.718525    2.635462    0.891847
C     -2.452335    3.805174    0.678014
C     -3.044609    4.045874   -0.557982
C     -2.881738    3.129655   -1.592708
C     -2.148579    1.957595   -1.388347
H      0.458101   -2.292051    2.810875
H     -0.849976   -3.513023    2.913134
H     -1.068973   -1.918916    3.717815
H     -0.768918   -2.409276    0.693219
H     -2.339999   -2.181361    1.528696
H      0.775955    1.659486    1.076688
H      1.060244    1.380541   -0.620980
H      1.310835   -1.219597    0.593297
H      1.305290   -0.135806    2.835971
H      2.704891    0.869722    2.392784
H      2.875901   -0.928479    2.485968
H      3.023739   -2.287899   -0.526314
H      4.190120   -1.663654    0.712303
H      4.487456   -1.408420   -1.050102
H      4.532681    1.081806   -0.888010
H      3.313977    1.900480    0.132416
H      4.521757    0.783282    0.889532
H     -2.993989   -0.997317   -0.635944
H     -3.359307   -2.503892   -2.538323
H     -1.530856   -2.960466   -4.143263
H      0.673802   -1.879449   -3.845306
H      1.077636   -0.378233   -1.986075
H     -1.228511    2.535708    1.848495
H     -2.546372    4.536099    1.470964
H     -3.608144    4.955314   -0.721947
H     -3.313277    3.333861   -2.564307
H     -2.020507    1.314673   -2.246235
