27

C      2.616222   -1.757965    0.544954
C      3.237528   -1.763245   -0.723535
C      2.792362   -0.897176   -1.738826
C      1.729814   -0.042846   -1.447262
C      1.127435   -0.036094   -0.214718
C      1.544853   -0.885926    0.810607
C      0.118832    0.907213   -0.268971
C      0.155102    1.423126   -1.561082
N      1.146825    0.842432   -2.274063
C     -0.885028    1.246334    0.796679
C     -2.207537    0.478710    0.597113
C     -2.002915   -1.004808    0.768811
O     -1.786226   -1.493350    1.909573
O     -2.016605   -1.839164   -0.341839
N     -3.230172    0.964980    1.531285
H      2.965843   -2.430138    1.317673
H      4.060009   -2.439543   -0.916669
H      3.258909   -0.897424   -2.715432
H      1.064853   -0.880195    1.780082
H     -0.516281    2.172492   -1.959768
H      1.396244    1.035268   -3.269583
H     -0.462025    1.032520    1.801932
H     -1.083841    2.338956    0.750401
H     -2.569155    0.664334   -0.440200
H     -3.427836    1.975054    1.344483
H     -4.118416    0.428536    1.396941
H     -2.908797    0.857921    2.521412
