39

C     -2.630034    2.302839    1.172528
C     -3.817836    1.451056    0.806183
C     -5.043535    1.697704    1.449007
C     -6.182605    0.963062    1.114424
C     -6.112839   -0.028561    0.136775
C     -4.899780   -0.301428   -0.497797
C     -3.738407    0.412407   -0.157520
C     -2.475760    0.059320   -0.838258
O     -2.447120    0.038338   -2.098456
N     -1.301320   -0.263758   -0.073983
C     -0.032030   -0.607374   -0.653608
C      1.145981   -0.149681   -0.044807
C      2.402882   -0.483372   -0.564831
C      2.475716   -1.298836   -1.710790
C      1.307030   -1.779033   -2.306590
C      0.058348   -1.443599   -1.778973
O      3.541103    0.023458    0.084531
C      4.897864   -0.292322   -0.236335
C      5.249954   -1.695431    0.268595
C      5.808612    0.746720    0.415151
H     -1.943668    2.429333    0.309478
H     -2.957261    3.318782    1.480821
H     -2.083202    1.838579    2.019007
H     -5.121249    2.471225    2.203368
H     -7.122862    1.167815    1.609984
H     -6.998907   -0.592335   -0.125173
H     -4.861722   -1.086219   -1.243883
H     -1.347248   -0.173443    0.965474
H      1.085669    0.479222    0.835150
H      3.424195   -1.574856   -2.147860
H      1.369674   -2.420664   -3.176160
H     -0.829946   -1.859886   -2.234460
H      5.057385   -0.233445   -1.334652
H      5.103911   -1.758083    1.368211
H      6.307803   -1.935300    0.028888
H      4.604863   -2.457210   -0.214724
H      6.871449    0.539630    0.166227
H      5.684124    0.736017    1.519330
H      5.550768    1.759327    0.038551
