21

C     -1.255096   -2.271334   -0.060106
C     -1.224977   -0.849973    0.410064
N     -1.983304   -0.414397    1.439477
C     -1.679683    0.891895    1.553233
C     -0.749583    1.227969    0.592768
N     -0.463359    0.127015   -0.142291
C      0.518670   -0.045195   -1.221796
C      1.901779   -0.373118   -0.658172
O      2.375554    0.689694    0.120132
N     -0.179768    2.539757    0.432974
O     -0.464551    3.439019    1.250423
O      0.635433    2.851515   -0.628080
H     -1.668209   -2.315466   -1.089130
H     -1.896508   -2.883272    0.608506
H     -0.230053   -2.695446   -0.052871
H     -2.109622    1.552883    2.294104
H      0.559850    0.848685   -1.873232
H      0.203602   -0.877089   -1.887012
H      2.600712   -0.556143   -1.504364
H      1.842686   -1.296419   -0.040244
H      3.266427    0.409419    0.455618
