36

C     -4.803552   -0.534949    2.569196
O     -3.428071   -0.697701    2.239134
C     -2.850002   -0.289469    1.027634
C     -1.483166   -0.509426    0.837543
C     -0.839748   -0.122900   -0.354761
C     -1.595717    0.500449   -1.374876
C     -2.973054    0.718251   -1.177331
C     -3.593299    0.327672    0.009525
O     -0.957544    0.890886   -2.564642
C     -1.603447    1.531893   -3.660096
C      0.651885   -0.379208   -0.525272
C      1.480050    0.382258    0.528674
N      2.906767    0.303702    0.218128
C      3.736462   -0.788794    0.637488
O      3.272765   -1.695171    1.381030
C      5.183345   -0.829887    0.239433
N      6.000946   -0.038919    1.155381
O      0.922667   -1.759205   -0.501648
H     -4.983091   -0.942245    3.585094
H     -5.438052   -1.089752    1.846127
H     -5.072202    0.542566    2.565505
H     -0.921995   -0.983686    1.632462
H     -3.577698    1.191441   -1.938680
H     -4.652773    0.511396    0.125037
H     -2.400568    0.876478   -4.070561
H     -0.857213    1.724621   -4.457785
H     -2.033806    2.502562   -3.334894
H      0.987546   -0.007507   -1.515816
H      1.289669   -0.003921    1.553166
H      1.175101    1.451806    0.518250
H      3.337825    1.085185   -0.325663
H      5.544789   -1.880985    0.239283
H      5.298577   -0.434490   -0.792485
H      5.874098   -0.409065    2.125854
H      5.658202    0.949685    1.145491
H      0.744301   -2.093571    0.415077
