25

C      0.138970    2.360091   -0.443281
C     -0.803143    1.231073   -0.115748
C     -0.339922   -0.096683    0.046604
C     -1.273089   -1.108124    0.312109
C     -2.628513   -0.802801    0.445294
C     -3.044797    0.528307    0.309347
O     -4.263047    0.831285    0.435047
N     -2.133160    1.503136    0.038312
C     -3.574056   -1.855015    0.728056
N     -4.332410   -2.699236    0.954874
C      1.092681   -0.455904   -0.060037
C      1.515723   -1.395409   -1.011776
C      2.868890   -1.733289   -1.091109
N      3.765687   -1.161195   -0.244539
C      3.381915   -0.256382    0.694740
C      2.038587    0.109755    0.807983
H      0.617225    2.729982    0.486886
H      0.920616    2.027843   -1.158386
H     -0.407861    3.202041   -0.917466
H     -0.939399   -2.133325    0.430815
H     -2.471530    2.487773   -0.060818
H      0.806746   -1.854053   -1.690148
H      3.206145   -2.451749   -1.826184
H      4.119338    0.175700    1.357887
H      1.738405    0.816178    1.571541
