28

C      0.693815   -0.716437   -0.007848
C      1.827141    0.290598   -0.239556
C      3.182187   -0.307188    0.149944
C      4.277963    0.683807   -0.083878
O      4.616977    1.478934    0.833061
O      4.892336    0.756108   -1.330077
C     -0.663963   -0.121342   -0.413791
C     -1.850881   -1.040343   -0.053839
C     -3.211137   -0.388612   -0.380523
C     -3.543526    0.834863    0.490886
S     -3.074303    2.390535   -0.334874
S     -1.744395   -2.619058   -0.972924
H      0.899007   -1.627817   -0.609155
H      0.667479   -0.997721    1.067998
H      1.847540    0.580391   -1.313761
H      1.640379    1.203059    0.369333
H      3.172290   -0.600850    1.222537
H      3.381895   -1.216751   -0.457094
H      5.624690    1.432564   -1.509618
H     -0.779790    0.842486    0.123371
H     -0.668971    0.086393   -1.506457
H     -1.822268   -1.272035    1.033980
H     -3.263831   -0.126170   -1.460107
H     -4.002853   -1.148883   -0.199036
H     -3.045319    0.771175    1.481879
H     -4.640270    0.868747    0.665765
H     -3.534664    3.175396    0.739280
H     -0.877528   -3.211848   -0.034930
