24

C     -3.431304    1.150768    0.763156
C     -2.663103    1.622243   -0.304971
C     -1.614606    0.847159   -0.810405
C     -1.333427   -0.412087   -0.253629
C     -2.102438   -0.873651    0.828056
C     -3.150091   -0.095291    1.330221
C     -0.184977   -1.233024   -0.771242
C      1.055913   -0.933038    0.012202
O      1.356496   -1.657160    0.999870
N      1.868341    0.198438   -0.331156
C      3.074385    0.551496    0.412487
C      4.174381   -0.410778    0.097729
O      4.508444   -1.289590    0.935153
O      4.810495   -0.357834   -1.135872
H     -4.241687    1.752507    1.153849
H     -2.878168    2.589912   -0.739527
H     -1.022603    1.227976   -1.633379
H     -1.889099   -1.833582    1.281947
H     -3.741871   -0.456748    2.161256
H     -0.425471   -2.316153   -0.695518
H     -0.007618   -1.017012   -1.847167
H      1.576980    0.810130   -1.126806
H      3.401902    1.572243    0.120610
H      2.859127    0.563075    1.503224
