18

C     -2.181805    0.582787    1.105194
C     -1.233923   -0.561652    0.900044
O     -1.072588   -1.368364    1.803126
C     -0.492454   -0.742077   -0.403335
C      1.015271   -0.445288   -0.280989
C      1.249300    0.995604    0.085716
O      1.259841    1.354784    1.294391
O      1.406008    1.944821   -0.919355
N      1.649625   -1.335092    0.694612
H     -3.202316    0.190387    1.297006
H     -1.853081    1.183362    1.979065
H     -2.214923    1.245434    0.215278
H     -0.925747   -0.083324   -1.187241
H     -0.636480   -1.786850   -0.754685
H      1.478067   -0.623952   -1.278289
H      1.545626    2.922366   -0.693388
H      2.679796   -1.151615    0.685387
H      1.529785   -2.321332    0.366828
