41

C      0.329264   -0.996199    2.291352
C     -0.574888   -1.368997    1.146686
C     -0.524979   -0.687625   -0.094938
C     -1.368744   -1.101613   -1.153670
C     -2.214531   -2.206539   -0.975275
C     -2.244920   -2.884238    0.241673
C     -1.430341   -2.471991    1.294473
C     -1.356434   -0.391876   -2.480200
N      0.373935    0.424819   -0.285176
C      1.651556    0.160961   -0.981490
C      1.962473    1.218451   -2.051260
C      2.782213    0.007017   -0.001359
O      3.261888    1.014622    0.587207
O      3.285113   -1.270555    0.262074
C      4.339580   -1.503008    1.187613
C      0.051746    1.718782    0.284888
O      0.967519    2.557049    0.501015
C     -1.333929    2.093093    0.640903
C     -1.709148    3.251959    1.294150
C     -3.080655    3.188406    1.412288
C     -3.460091    1.999845    0.824153
O     -2.399084    1.372088    0.373914
H      1.325111   -1.459399    2.142192
H     -0.083864   -1.356546    3.257472
H      0.443720    0.102270    2.376440
H     -2.854368   -2.545601   -1.780705
H     -2.900000   -3.736564    0.368254
H     -1.463508   -3.020745    2.227856
H     -1.338863    0.707975   -2.330402
H     -0.462390   -0.701424   -3.059966
H     -2.263142   -0.632727   -3.074939
H      1.568208   -0.804370   -1.530789
H      2.229357    2.197364   -1.604092
H      2.819932    0.881503   -2.672392
H      1.086075    1.358003   -2.717304
H      4.038145   -1.161455    2.200664
H      5.253961   -0.960680    0.865869
H      4.559322   -2.589679    1.224424
H     -1.064599    4.047410    1.644845
H     -3.728462    3.922297    1.872628
H     -4.472179    1.627915    0.738485
