37

C      2.795292   -2.942785   -1.547818
O      1.955313   -1.860621   -1.159346
C      2.413721   -0.595730   -0.753033
C      1.473218    0.396928   -0.386336
C      1.939082    1.659730    0.031853
C      3.305030    1.938063    0.077240
C      4.233372    0.961315   -0.290234
C      3.790877   -0.297345   -0.702058
O      5.599800    1.230071   -0.248768
C     -0.023562    0.109507   -0.421251
C     -0.761665    1.074426   -1.363064
O     -2.148100    0.745338   -1.403950
C     -2.849336    0.346467   -0.260539
C     -2.159601    0.031888    0.930503
C     -0.648522    0.160434    0.992749
O     -0.106831   -0.887269    1.759949
C     -2.897057   -0.320944    2.074324
C     -4.290720   -0.411209    2.017126
C     -4.966700   -0.134692    0.825379
C     -4.243454    0.244854   -0.312646
O     -6.355522   -0.234574    0.783595
H      3.400120   -2.657744   -2.434413
H      2.162759   -3.813764   -1.815362
H      3.459675   -3.231818   -0.706275
H      1.245290    2.435513    0.327542
H      3.641056    2.915226    0.400280
H      4.530030   -1.036579   -0.978912
H      5.953571    2.132868    0.045745
H     -0.206598   -0.911465   -0.822258
H     -0.343066    1.003512   -2.389550
H     -0.657827    2.123225   -1.012627
H     -0.421220    1.148997    1.457733
H      0.063186   -0.530527    2.670756
H     -2.396149   -0.528692    3.011151
H     -4.846901   -0.694128    2.901845
H     -4.763360    0.470819   -1.235160
H     -6.875201   -0.039294   -0.064164
