38

C     -5.948787    0.482382    0.297068
C     -4.481585    0.384300    0.000988
C     -3.646265   -0.389117    0.819887
C     -2.285719   -0.518292    0.522610
C     -1.736979    0.148746   -0.593389
C     -2.588207    0.883067   -1.436447
C     -3.948895    1.000653   -1.140222
C     -0.264358   -0.006747   -0.926359
C      0.545910   -0.453524    0.313095
C     -0.139997   -1.649562    0.992576
O     -1.475130   -1.302072    1.351472
C      1.994274   -0.767680   -0.043956
C      2.290250   -1.835376   -0.916179
C      3.609518   -2.131813   -1.259165
C      4.654017   -1.369018   -0.742563
C      4.384469   -0.304311    0.117645
C      3.057380    0.010959    0.475127
O      2.768219    1.084029    1.335288
C      3.743189    1.942441    1.918457
O      0.257415    1.216572   -1.385630
H     -6.358228    1.448873   -0.066703
H     -6.132411    0.422215    1.391022
H     -6.483394   -0.349975   -0.206356
H     -4.052060   -0.899703    1.684847
H     -2.201755    1.364840   -2.325445
H     -4.587695    1.571888   -1.802603
H     -0.186487   -0.790987   -1.716338
H      0.506567    0.381086    1.046983
H      0.416297   -1.940813    1.908891
H     -0.174324   -2.524293    0.309027
H      1.499555   -2.442303   -1.336920
H      3.822045   -2.955152   -1.928923
H      5.676489   -1.601777   -1.011032
H      5.217588    0.269775    0.498873
H      4.311502    2.470395    1.123837
H      3.230042    2.697394    2.548542
H      4.434312    1.355589    2.559603
H      0.273235    1.178389   -2.377610
