45

C     -1.509211   -1.065224    1.719587
C     -1.201376   -0.837470    0.205112
C     -0.004156   -1.784356   -0.159327
C      1.035406   -1.143170   -1.091676
C      1.648490    0.178898   -0.522499
C      0.622201    0.968557    0.348860
C     -0.826790    0.653535   -0.073386
C     -1.934891    1.545404    0.464039
C     -1.723712    2.573553    1.303381
C     -3.358576    1.172198    0.097156
C     -3.437060    0.033638   -0.952761
C     -2.468476   -1.174851   -0.673120
O     -3.170425   -2.286632   -0.167724
O     -3.157533    0.561913   -2.226913
C      3.039741    0.004075    0.200419
C      3.562792    1.377461    0.681070
C      4.131589   -0.602451   -0.735163
O      4.287600    0.158490   -1.904659
O      2.890818   -0.805379    1.343823
H     -0.669079   -0.727139    2.359426
H     -1.660616   -2.146505    1.927697
H     -2.421204   -0.536605    2.056236
H      0.535666   -2.111372    0.754677
H     -0.376297   -2.722724   -0.625838
H      1.807587   -1.897401   -1.328838
H      0.533801   -0.921767   -2.059638
H      1.835621    0.819931   -1.413647
H      0.757289    0.740098    1.425749
H      0.818592    2.053310    0.204519
H     -0.838311    0.825139   -1.173482
H     -0.734655    2.851491    1.645583
H     -2.560682    3.153432    1.680816
H     -3.904822    0.861380    1.013016
H     -3.881231    2.069686   -0.300534
H     -4.484721   -0.350851   -0.958729
H     -2.092648   -1.492469   -1.671723
H     -3.748949   -1.971465    0.574638
H     -3.962499    1.064850   -2.519315
H      4.582495    1.280840    1.112343
H      3.603188    2.102962   -0.159692
H      2.918685    1.797231    1.481489
H      5.105987   -0.616378   -0.200810
H      3.932739   -1.668109   -0.982211
H      3.688123   -0.238719   -2.588820
H      2.789509   -1.747034    1.049518
