50

C     -4.904902    2.179821    0.325107
C     -5.668469    0.880329    0.232804
C     -5.194880   -0.268925    0.763272
C     -3.881172   -0.397546    1.496308
C     -2.706866   -0.375028    0.546679
C     -1.765525    0.663748    0.629667
C     -0.658771    0.704408   -0.229783
C     -0.507317   -0.296099   -1.207150
C     -1.431228   -1.345941   -1.281266
C     -2.531494   -1.399605   -0.405129
O     -3.464980   -2.448642   -0.453710
C     -3.411340   -3.538788   -1.367999
O      0.551446   -0.239029   -2.114154
C      0.301878    1.826346   -0.118256
O     -0.145562    3.002316   -0.049650
C      1.766717    1.630922   -0.079196
C      2.334190    0.468278    0.275953
C      3.799869    0.240797    0.318861
C      4.731205    1.292358    0.429137
C      6.102864    1.023068    0.474310
C      6.569687   -0.303194    0.420209
C      5.644497   -1.347180    0.324754
C      4.273662   -1.080393    0.279233
O      7.934470   -0.623620    0.463284
C      8.982880    0.334942    0.560048
C     -7.005079    0.852340   -0.462546
H     -3.959367    2.105051   -0.249468
H     -4.683219    2.421384    1.385574
H     -5.488385    3.024214   -0.096993
H     -5.795438   -1.171585    0.675836
H     -3.870894   -1.367617    2.038327
H     -3.801231    0.392053    2.273959
H     -1.891330    1.443345    1.372313
H     -1.287363   -2.111466   -2.031164
H     -4.272229   -4.212163   -1.178899
H     -2.471907   -4.113114   -1.222815
H     -3.475678   -3.165058   -2.411819
H      0.679286   -0.945102   -2.829274
H      2.378229    2.487253   -0.326016
H      1.697768   -0.373818    0.519309
H      4.411809    2.322201    0.507279
H      6.790832    1.853379    0.560290
H      5.989999   -2.372511    0.287184
H      3.580448   -1.909708    0.204830
H      9.956905   -0.194712    0.578635
H      8.879419    0.920820    1.497878
H      8.962573    1.013030   -0.319029
H     -7.283973    1.851105   -0.858548
H     -7.792395    0.528158    0.250555
H     -6.969635    0.139176   -1.313902
