44

C     -7.452500    0.676540    1.069252
N     -6.695736   -0.172791    0.140903
C     -7.431732   -1.059008   -0.769488
C     -5.244161   -0.136939    0.123455
C     -4.499573   -1.203309   -0.421600
C     -3.102541   -1.167351   -0.437402
C     -2.412977   -0.067284    0.089303
C     -3.143094    0.998400    0.633385
C     -4.540220    0.965219    0.651098
C     -0.937728   -0.036852    0.068624
C     -0.001067    0.841753    0.480912
C      1.087555   -0.026727    0.024589
C      2.424607    0.027379    0.018992
C      3.221318   -1.078577   -0.547821
C      4.556105   -1.028217   -0.555205
C      5.296564    0.144393    0.007390
N      6.619234    0.198366    0.002104
C      7.338966    1.358064    0.558807
C      7.426592   -0.899021   -0.560700
C      4.467531    1.252965    0.576264
C      3.133039    1.194469    0.579616
C      0.088554   -0.960803   -0.413640
O      0.092335   -2.088941   -0.972260
O     -0.046099    2.085453    1.097759
H     -7.394376    1.736234    0.743894
H     -8.523232    0.384886    1.111031
H     -7.039537    0.575854    2.095428
H     -8.516251   -0.820597   -0.785359
H     -7.049016   -0.938680   -1.805228
H     -7.313560   -2.114341   -0.446237
H     -4.989697   -2.076354   -0.829240
H     -2.563248   -2.004375   -0.861306
H     -2.637236    1.861541    1.044854
H     -5.062985    1.813221    1.070886
H      2.729312   -1.947703   -0.966185
H      5.079872   -1.870677   -0.984962
H      7.060460    2.280584    0.005795
H      8.440623    1.249304    0.478308
H      7.099948    1.472661    1.637774
H      7.189104   -1.033062   -1.637763
H      7.228590   -1.840985   -0.005784
H      8.516332   -0.700843   -0.488957
H      4.924370    2.135434    1.002073
H      2.575554    2.020717    1.002154
