27

C      0.091746   -0.618332    0.258610
C      1.108403   -0.612894    1.408469
N      2.430491   -0.215080    0.926696
C      2.826453    0.996373    0.654919
N      1.970012    2.132883    0.832970
N      4.156196    1.195927    0.175846
C     -1.324070   -0.994248    0.755904
C     -2.427834   -0.843520   -0.323113
C     -2.632045    0.600277   -0.714886
O     -3.395078    1.330940   -0.027743
O     -1.951802    1.145295   -1.800878
N     -2.160390   -1.688510   -1.492210
O     -1.337702   -2.297323    1.286160
H      0.066169    0.387235   -0.208644
H      0.432260   -1.342768   -0.512296
H      1.189101   -1.641435    1.819486
H      0.781335    0.048324    2.239560
H      1.001762    2.057750    1.212275
H      2.318799    3.086808    0.591928
H      4.799341    0.384145    0.040940
H      4.502142    2.155519   -0.046464
H     -1.584405   -0.301864    1.587470
H     -3.378812   -1.197506    0.135863
H     -2.072503    2.118446   -2.054681
H     -2.997057   -1.660742   -2.119803
H     -1.355299   -1.306049   -2.038534
H     -1.057211   -2.919650    0.565347
