29

C      3.121708   -0.240833   -1.085105
C      1.679263   -0.735580   -1.162430
N      0.861996   -0.140106   -0.095121
C      1.424988    0.927356    0.745483
C      2.874387    0.615793    1.183703
N      3.577906   -0.334212    0.302111
C     -0.553007   -0.419514   -0.055824
C     -1.017827   -1.743448   -0.121606
C     -2.386209   -2.015350   -0.071151
C     -3.307360   -0.971686    0.034672
C     -2.868011    0.362193    0.072902
C     -1.487116    0.627838    0.050359
C     -3.857429    1.489351    0.233246
F     -4.034256    1.751204    1.578939
F     -3.396444    2.634763   -0.392480
F     -5.079008    1.154312   -0.325083
H      3.761725   -0.878954   -1.732614
H      3.195378    0.807922   -1.452858
H      1.250423   -0.477721   -2.154869
H      1.686094   -1.840761   -1.054216
H      0.800760    1.077607    1.653992
H      1.414574    1.876588    0.166655
H      2.852166    0.179962    2.205422
H      3.442934    1.571016    1.247500
H      4.600593   -0.111318    0.325838
H     -0.323194   -2.570054   -0.184042
H     -2.733849   -3.039898   -0.104791
H     -4.362614   -1.207950    0.089057
H     -1.138573    1.651480    0.102310
