18

C     -1.781008    1.106474   -0.148027
C     -1.253780   -0.306770    0.102702
C      0.276720   -0.334489    0.291463
C      0.737599   -1.728230    0.734127
C      0.991468    0.065776   -0.981886
O      0.897912   -0.669496   -2.002268
C      1.780261    1.306698   -1.070561
O      1.877278    2.082247   -0.083226
O      2.424322    1.632896   -2.257639
H     -2.888851    1.081554   -0.218499
H     -1.494050    1.779978    0.687355
H     -1.378734    1.510929   -1.100641
H     -1.549708   -0.963764   -0.744642
H     -1.744950   -0.697530    1.020850
H      0.537928    0.366342    1.114504
H      0.269323   -1.995661    1.705494
H      1.840697   -1.741030    0.867914
H      0.457573   -2.495924   -0.019254
