21

C     -3.378566   -0.267542   -0.100315
C     -2.046702   -0.149944    0.579471
O     -1.665357   -1.057220    1.302736
C     -1.171324    1.057835    0.385521
N      0.007085    0.702441   -0.407370
C      1.358704    0.796970    0.158614
C      1.924088   -0.578587    0.385246
O      1.405485   -1.311008    1.213685
C      3.117475   -1.070274   -0.379045
N     -0.182735    0.315301   -1.746377
O      0.782399    0.032794   -2.486251
H     -3.389680   -1.175943   -0.738371
H     -4.179382   -0.350723    0.663922
H     -3.586492    0.615428   -0.740055
H     -1.725092    1.866817   -0.136775
H     -0.884445    1.452661    1.383757
H      2.002160    1.388132   -0.527291
H      1.349244    1.337627    1.129183
H      2.843064   -1.984479   -0.945886
H      3.483110   -0.306006   -1.096158
H      3.936962   -1.314279    0.328912
