43

C     -5.623295   -2.057770   -0.005293
C     -4.547720   -1.487598    0.915003
N     -4.118801   -0.152620    0.437260
C     -4.988765    0.914803    0.983028
C     -5.084131    2.075455   -0.003460
C     -2.695129    0.098946    0.760892
C     -1.796041   -0.449116   -0.352913
N     -0.385448   -0.188595   -0.064440
C      0.647330   -0.594378   -0.976409
O      0.331249   -1.042575   -2.112891
C      2.080825   -0.478655   -0.614285
C      3.055266   -0.383291   -1.623530
C      4.409973   -0.277568   -1.296115
C      4.815852   -0.257094    0.047374
C      3.851623   -0.393083    1.054262
C      2.495845   -0.497070    0.729600
N      6.205044   -0.177756    0.404692
C      7.167413    0.666526   -0.247408
O      8.394699    0.420226   -0.105887
C      6.758916    1.850682   -1.070850
H     -5.237563   -2.119411   -1.045093
H     -6.533051   -1.422863    0.006519
H     -5.901422   -3.078027    0.333559
H     -3.702947   -2.211506    0.910245
H     -4.925678   -1.443050    1.961864
H     -6.025657    0.547529    1.149030
H     -4.615916    1.279765    1.967161
H     -5.778012    2.846141    0.393608
H     -5.473585    1.712325   -0.978248
H     -4.091324    2.544473   -0.162323
H     -2.417297   -0.355536    1.739690
H     -2.487280    1.189190    0.842896
H     -2.071013    0.039881   -1.312843
H     -1.946336   -1.544124   -0.459680
H     -0.128713    0.339391    0.799762
H      2.769543   -0.388041   -2.668204
H      5.140802   -0.235817   -2.092209
H      4.152351   -0.413435    2.094367
H      1.781879   -0.618868    1.532973
H      6.529264   -0.726393    1.233235
H      6.722577    1.568964   -2.143215
H      7.497883    2.669875   -0.944271
H      5.766788    2.230067   -0.748956
