27

C      3.459720   -0.224390    0.366330
C      2.427034   -0.955469   -0.495025
C      1.060892   -0.334737   -0.311922
C      0.112233   -0.947032    0.522935
C     -1.153443   -0.361350    0.723844
C     -1.465844    0.851667    0.090905
C     -0.508764    1.471453   -0.733832
C      0.742908    0.885599   -0.927807
O     -2.735412    1.410246    0.308523
C     -3.188249    2.632072   -0.265674
O     -2.126097   -0.952602    1.546015
C     -1.951845   -2.177531    2.250889
O      2.797437   -0.895145   -1.848525
H      4.452068   -0.711954    0.261679
H      3.161834   -0.261924    1.436157
H      3.550139    0.837277    0.051320
H      2.394737   -2.023298   -0.173913
H      0.366033   -1.877018    1.013584
H     -0.721231    2.409565   -1.227912
H      1.466929    1.386341   -1.558701
H     -2.539973    3.471746    0.062776
H     -3.186139    2.557243   -1.373648
H     -4.225177    2.830044    0.074799
H     -1.760065   -3.005570    1.536192
H     -2.878329   -2.404756    2.816857
H     -1.109688   -2.088356    2.969247
H      3.558293   -1.522121   -1.967721
