22

C     -3.180959   -0.519111    0.189734
C     -1.970704    0.123563   -0.076513
C     -0.873191   -0.047955    0.786728
C     -1.040664   -0.866914    1.917982
N     -2.230528   -1.481825    2.153181
C     -3.292550   -1.327835    1.320334
C      0.427469    0.624030    0.537185
O      1.229568    0.784052    1.498369
C      0.785358    1.174948   -0.824451
C      2.298739    1.228806   -1.079786
C      2.895611   -0.144541   -1.133372
O      3.528007   -0.599006   -0.142731
O      2.723675   -0.930251   -2.268635
H     -4.027012   -0.387031   -0.472313
H     -1.906153    0.765170   -0.945128
H     -0.224085   -1.026270    2.610338
H     -4.225088   -1.830935    1.538398
H      0.371879    2.202832   -0.905120
H      0.319576    0.555466   -1.621417
H      2.479239    1.729171   -2.055262
H      2.802042    1.839193   -0.298310
H      3.109770   -1.865557   -2.316261
