40

C     -2.705868   -3.531787   -1.661881
C     -2.110160   -2.736396   -0.546680
O     -1.741229   -3.322958    0.506584
N     -1.933708   -1.320250   -0.695880
C     -1.291884   -0.477069    0.320142
C     -2.186320    0.758462    0.619067
C     -1.744049    1.984578   -0.197222
C     -0.218855    2.277603   -0.044512
O      0.502615    1.155024    0.462176
C      0.116841   -0.048241   -0.177296
C      1.170495   -1.162289    0.083553
C      2.532594   -0.921479   -0.635281
C      3.442023    0.155046   -0.003795
O      3.890626   -0.224191    1.270645
O      3.239424   -2.129691   -0.773790
O      1.343467   -1.429215    1.455510
C     -0.032328    3.436749    0.909964
O      0.417415    3.241267    2.070603
O     -0.378727    4.730897    0.528602
O      0.302728    2.646057   -1.299716
O     -2.211475    1.061400    1.993824
H     -3.638299   -3.043031   -2.013868
H     -2.948072   -4.561104   -1.321730
H     -1.982867   -3.588061   -2.501977
H     -2.205905   -0.880745   -1.604872
H     -1.192517   -1.048247    1.269465
H     -3.234817    0.524096    0.329975
H     -1.970648    1.774866   -1.266579
H     -2.367998    2.862672    0.082176
H      0.075353    0.102486   -1.282814
H      0.755623   -2.088782   -0.370690
H      2.304020   -0.574207   -1.666437
H      2.907508    1.120513    0.077429
H      4.310201    0.339186   -0.678518
H      4.710096   -0.768782    1.139308
H      3.348653   -2.522758    0.131050
H      1.471601   -0.566772    1.926992
H     -0.758653    4.925432   -0.390025
H      1.288753    2.717333   -1.202055
H     -1.275657    1.132389    2.313763
