20

C      0.499461    1.657590    0.160819
C      1.363159    0.391406    0.275176
C      0.460957   -0.819879    0.549952
C     -0.676245   -0.879089   -0.488779
C     -1.387087    0.485223   -0.584029
O     -0.468525    1.532000   -0.867101
O     -2.116523    0.752086    0.588439
O     -1.610520   -1.866110   -0.133224
O      1.230240   -1.994406    0.500086
O      2.084608    0.192302   -0.914355
H      0.022689    1.895795    1.138099
H      1.157273    2.518510   -0.082897
H      2.069469    0.506409    1.130446
H      0.021303   -0.698860    1.569549
H     -0.244780   -1.108343   -1.492710
H     -2.101581    0.422802   -1.435953
H     -2.636720    1.578773    0.411719
H     -1.252859   -2.733549   -0.457554
H      0.752246   -2.676876    1.039836
H      2.833434    0.844216   -0.907519
