31

C     -2.843154    1.778150   -0.265221
C     -2.541897    0.295439   -0.479777
C     -2.210637   -0.412743    0.823369
C     -1.335281   -1.553916    0.360401
C     -0.776885   -1.042864   -0.975607
O     -1.440220    0.149607   -1.343104
N      0.662829   -0.795468   -0.869951
C      1.667838   -1.632396   -1.236329
N      2.906606   -1.158585   -0.926556
C      2.634265    0.019585   -0.334469
C      3.503455    0.952962    0.219026
N      2.955557    2.066390    0.792062
C      1.597362    2.258564    0.824735
N      0.752715    1.332478    0.279261
C      1.299418    0.232951   -0.293412
N      4.918699    0.766141    0.201970
O     -2.099774   -2.715800    0.156697
O     -3.378357   -0.855179    1.466128
H     -1.960456    2.299617    0.162419
H     -3.098737    2.252133   -1.236420
H     -3.705699    1.896861    0.424547
H     -3.429310   -0.181583   -0.955969
H     -1.624566    0.259635    1.494509
H     -0.534913   -1.748767    1.113246
H     -0.952487   -1.793768   -1.778751
H      1.504478   -2.589252   -1.715212
H      1.191756    3.147936    1.286819
H      5.547402    1.482900    0.627437
H      5.343998   -0.082651   -0.233009
H     -1.453503   -3.461098    0.044556
H     -3.100501   -1.167275    2.366607
