23

C     -1.890369    0.129429   -0.091155
C     -1.231315   -1.020267    0.676441
C      0.263686   -1.108379    0.307145
C      0.929032    0.286216    0.439807
O      0.248741    1.233915   -0.368233
C     -1.077760    1.422598    0.091194
O     -1.663482    2.449669   -0.662804
C      2.395003    0.231979   -0.004159
O      2.977704    1.497934    0.138168
O      0.915431   -2.063794    1.108155
O     -1.882888   -2.221440    0.355218
H     -1.943467   -0.122867   -1.173681
H     -2.926051    0.279015    0.284632
H     -1.337457   -0.811396    1.767908
H      0.342033   -1.437626   -0.753210
H      0.918260    0.608226    1.508172
H     -1.075286    1.723962    1.167885
H     -2.484346    2.730467   -0.179367
H      2.952054   -0.500542    0.621931
H      2.452425   -0.088189   -1.069167
H      3.916478    1.405378   -0.170305
H      0.860893   -1.754218    2.050133
H     -1.659320   -2.870070    1.072798
