20

C      1.781261    1.355265   -0.577053
C      1.283769    0.503437    0.328034
C     -0.205379    0.492183    0.594515
C     -0.942093   -0.496839   -0.328266
C     -2.388408   -0.615715    0.074635
O     -3.150893    0.386928    0.018897
O     -2.884648   -1.838803    0.514938
N     -0.826740   -0.082857   -1.729247
C      2.156030   -0.480289    1.019137
O      1.643828   -1.508977    1.534725
O      3.532955   -0.292297    1.141185
H      2.826276    1.356345   -0.852182
H      1.134691    2.055080   -1.092065
H     -0.627712    1.514791    0.470629
H     -0.379823    0.207069    1.655642
H     -0.470138   -1.498552   -0.219060
H     -3.854213   -1.936858    0.791542
H     -1.301977   -0.795641   -2.329944
H     -1.324148    0.827299   -1.868550
H      3.997361    0.558730    0.852489
