19

C     -0.968085   -1.101228   -0.706800
C     -0.339016    0.082706    0.063004
C     -0.075375    1.257540   -0.926272
O      1.309908    1.209443   -1.221957
C      1.979659    0.389222   -0.342814
O      3.229905    0.242954   -0.360131
C      1.072775   -0.260067    0.635773
O      1.315222   -1.641794    0.774876
C     -1.296565    0.515452    1.189821
H     -1.952671   -0.808756   -1.131643
H     -0.313126   -1.417525   -1.547042
H     -1.131553   -1.968628   -0.031809
H     -0.666628    1.180285   -1.864381
H     -0.296586    2.240491   -0.455772
H      1.236475    0.228677    1.620861
H      1.512285   -2.022721   -0.120905
H     -0.883473    1.382663    1.748887
H     -2.282189    0.811181    0.770083
H     -1.450963   -0.319895    1.906220
