26

C      3.978725   -1.617402   -0.729402
C      3.276671   -0.263951   -0.695487
N      1.998291   -0.354012    0.008941
C      1.150682    0.790804    0.168389
O      1.487773    1.904692   -0.317447
C     -0.165800    0.660455    0.873341
C     -1.242106    0.146041   -0.092073
C     -2.603235   -0.059442    0.608627
C     -3.185151    1.244130    1.092837
O     -3.362988    1.427454    2.325993
O     -3.528447    2.257578    0.200608
N     -3.559108   -0.719431   -0.283143
H      3.345749   -2.362894   -1.256117
H      4.178274   -1.970231    0.304770
H      4.944951   -1.523428   -1.268403
H      3.931483    0.472019   -0.180925
H      3.101322    0.079971   -1.737711
H      1.682931   -1.269212    0.404839
H     -0.461536    1.651143    1.281706
H     -0.055293   -0.042858    1.726934
H     -1.351198    0.856244   -0.940990
H     -0.907035   -0.829138   -0.510106
H     -2.444787   -0.723210    1.489201
H     -3.400347    2.153298   -0.798199
H     -3.220255   -1.690396   -0.475221
H     -3.589568   -0.218222   -1.200961
