24

C     -2.517386   -0.622359   -0.369770
C     -1.045069   -0.611969    0.067829
C     -0.580057    0.792055    0.516474
C      0.890393    0.705991    0.972846
C      1.745556    0.031160   -0.116258
C      1.096067   -1.298711   -0.544538
O     -0.233547   -1.086557   -0.994109
O      1.846166   -1.850281   -1.592227
O      3.036532   -0.222131    0.375482
O      1.396554    1.987581    1.243936
O     -0.700003    1.703438   -0.547838
O     -2.687565    0.055260   -1.587891
H     -3.160931   -0.193363    0.434513
H     -2.836791   -1.676557   -0.513973
H     -0.982447   -1.303295    0.942039
H     -1.209988    1.118292    1.377991
H      0.945099    0.083451    1.897894
H      1.802225    0.697062   -1.010506
H      1.112860   -2.012716    0.315112
H      1.464221   -2.749738   -1.767406
H      3.534360    0.635740    0.332335
H      0.982151    2.283530    2.096311
H     -0.782012    2.607808   -0.146820
H     -3.116387    0.926309   -1.381425
