11

C      1.115193   -0.194154    0.612504
C     -0.095008   -0.258589   -0.316540
C     -0.803120    1.067407   -0.355307
O     -1.330469    1.521272    0.648299
O     -0.971890   -1.258955    0.129373
H      0.797591    0.027665    1.654148
H      1.646703   -1.169419    0.603716
H      1.820268    0.594035    0.271241
H      0.269713   -0.503841   -1.340795
H     -0.855697    1.624378   -1.285113
H     -1.593284   -1.449799   -0.621526
