27

C     -1.123952   -1.886252   -1.295144
N     -1.113648   -1.051560   -0.083447
C     -2.465109   -0.872536    0.474516
C     -2.682551    0.615475    0.725652
C     -1.315703    1.243335    0.580829
C     -0.579235    0.292945   -0.350292
C      0.915561    0.337178   -0.119007
C      1.751754    1.026144   -1.011743
N      3.094401    1.084253   -0.793704
C      3.666295    0.490141    0.290406
O      4.912031    0.560998    0.465045
C      2.871962   -0.196621    1.211903
C      1.493872   -0.268722    1.008064
H     -0.091095   -1.991473   -1.691122
H     -1.495490   -2.903329   -1.046705
H     -1.772673   -1.446526   -2.085442
H     -3.267917   -1.260815   -0.194018
H     -2.524683   -1.424624    1.436898
H     -3.367884    1.031416   -0.045844
H     -3.109150    0.802887    1.735169
H     -1.379202    2.268543    0.154897
H     -0.827523    1.287310    1.580314
H     -0.812987    0.606036   -1.396647
H      1.333652    1.517075   -1.882188
H      3.694516    1.600124   -1.476422
H      3.316407   -0.667872    2.079939
H      0.878351   -0.793532    1.728094
