36

C      1.357791   -0.375286    0.163999
C      0.993130   -1.856622    0.417011
C     -0.408998   -1.999726    1.049015
C     -1.469959   -1.320382    0.159613
C     -1.118173    0.165911   -0.091469
C      0.280696    0.286097   -0.731237
O      0.574459    1.647652   -0.918186
N     -2.098232    0.767594   -1.002001
C     -3.251169    1.294178   -0.696937
N     -3.718365    1.380402    0.656384
N     -4.066446    1.816207   -1.745916
O     -2.730658   -1.419796    0.769674
O     -0.437186   -1.429340    2.334972
O      1.964739   -2.495963    1.209352
N      2.667916   -0.326705   -0.493477
C      3.543932    0.638102   -0.455682
N      4.764374    0.485850   -1.180122
N      3.327197    1.838663    0.298549
H      1.399481    0.135220    1.150291
H      0.976630   -2.381685   -0.564543
H     -0.658976   -3.086231    1.107216
H     -1.498921   -1.842046   -0.827244
H     -1.089858    0.725706    0.868666
H      0.259149   -0.237618   -1.718746
H      1.145870    1.715924   -1.727183
H     -3.169474    1.038341    1.473259
H     -4.649784    1.808270    0.854154
H     -3.746863    1.770723   -2.739218
H     -4.992456    2.249133   -1.533810
H     -3.034849   -2.357623    0.651891
H     -0.158708   -2.135978    2.974165
H      2.087942   -1.960104    2.035717
H      5.487617    1.238607   -1.166820
H      4.948481   -0.380454   -1.733715
H      4.059368    2.582694    0.305233
H      2.460301    2.020288    0.847145
