33

C      2.867981   -0.580205    1.056021
C      4.165936   -0.184849    0.723171
C      4.385386    0.704970   -0.332796
C      3.293605    1.200440   -1.065366
C      1.991132    0.803328   -0.729366
C      1.767252   -0.079539    0.342402
C      0.371302   -0.545059    0.689549
C     -0.016682   -1.822219   -0.093958
C     -1.467440   -2.155593    0.147847
O     -1.845658   -3.357909    0.119538
C     -2.441761   -1.061446    0.343726
C     -1.959482    0.254294    0.465258
O     -0.581258    0.500181    0.467749
C     -2.855887    1.321781    0.577787
C     -4.236952    1.081929    0.599852
C     -4.716957   -0.228715    0.501944
C     -3.825554   -1.298352    0.371904
O     -5.138683    2.136876    0.720011
O      0.221046   -1.680078   -1.473069
O      3.505687    2.081799   -2.124421
O      5.691981    1.082139   -0.641177
H      2.721279   -1.278674    1.870668
H      5.005109   -0.574292    1.285560
H      1.156546    1.181177   -1.306773
H      0.339367   -0.791348    1.775276
H      0.608978   -2.662919    0.278325
H     -2.478368    2.333245    0.659742
H     -5.782858   -0.417518    0.518651
H     -4.216728   -2.303829    0.280315
H     -4.823384    3.097136    0.793319
H     -0.343515   -0.932324   -1.802750
H      2.735698    2.452648   -2.668923
H      5.902882    1.722926   -1.396797
