24

C      0.501983   -1.232560   -1.186246
C      1.594273   -0.720458   -1.891011
C      2.382530    0.292499   -1.335274
C      2.072675    0.797679   -0.060887
C      0.976559    0.281225    0.645373
C      0.187314   -0.738553    0.089157
C     -1.008344   -1.273887    0.839932
C     -2.318216   -0.553941    0.464446
C     -2.281668    0.890335    0.873863
O     -1.917241    1.777880    0.055755
O     -2.605871    1.244076    2.179831
O     -2.567320   -0.653724   -0.914521
O      2.851733    1.809743    0.497709
O      3.465943    0.784432   -2.062404
H     -0.099367   -2.013524   -1.634961
H      1.828200   -1.110514   -2.873487
H      0.737259    0.677221    1.624848
H     -0.839652   -1.186847    1.936187
H     -1.119937   -2.359931    0.628395
H     -3.153659   -1.036615    1.022422
H     -2.567985    2.210589    2.480736
H     -2.833927   -1.593974   -1.090145
H      2.648475    2.191533    1.414123
H      4.066243    1.517316   -1.703840
