28

C     -2.919965    1.514203    0.666891
N     -1.791900    0.684428    1.096445
C     -1.952498   -0.730954    0.723250
C     -1.996541   -0.988687   -0.800676
C     -0.745368   -0.525201   -1.564122
C      0.499424   -1.215569   -1.067660
O      0.636973   -2.446981   -1.302859
C      1.522637   -0.517608   -0.253357
C      1.853294    0.831307   -0.474496
N      2.795149    1.445065    0.293683
C      3.448971    0.781224    1.286584
O      4.314108    1.377813    1.981578
C      3.164140   -0.563246    1.533120
C      2.203645   -1.212752    0.757689
H     -2.887972    1.689376   -0.429670
H     -2.856617    2.499932    1.173028
H     -3.887610    1.045982    0.949170
H     -0.905724    1.069849    0.698908
H     -2.883211   -1.130951    1.181834
H     -1.116621   -1.311668    1.168674
H     -2.891936   -0.501305   -1.240492
H     -2.127796   -2.080938   -0.963043
H     -0.877136   -0.776757   -2.638504
H     -0.667396    0.577534   -1.512623
H      1.386257    1.392685   -1.272265
H      3.021963    2.448284    0.107796
H      3.680609   -1.101331    2.318537
H      1.981120   -2.253733    0.957760
