19

C      2.560929    0.975394    0.224399
C      1.485074   -0.069901   -0.057307
C      0.091114    0.455708    0.317339
C     -1.036558   -0.516165   -0.083111
C     -2.367405    0.170957    0.089314
O     -2.870213    0.295694    1.237833
O     -3.030790    0.716310   -1.006473
N     -0.993351   -1.731310    0.735772
H      3.557382    0.564985   -0.043374
H      2.565056    1.243674    1.302434
H      2.380042    1.889296   -0.380681
H      1.721202   -0.980431    0.532952
H      1.512927   -0.329807   -1.137882
H      0.048722    0.646236    1.412903
H     -0.070430    1.425438   -0.205354
H     -0.918400   -0.793883   -1.155278
H     -2.642579    0.657717   -1.940187
H     -1.826215   -2.319647    0.500059
H     -0.166508   -2.300266    0.444326
