28

C      0.827205    2.538437    0.374571
N      0.443850    1.147127    0.092413
C     -0.952175    0.782425   -0.050381
C     -1.335387   -0.566289    0.112536
C     -2.691667   -0.931405    0.023052
C     -3.658929    0.042917   -0.251964
C     -3.281534    1.370450   -0.451056
C     -1.939018    1.741059   -0.357015
O     -3.072902   -2.261085    0.199137
N     -0.326956   -1.562064    0.338592
C      1.060735   -1.238150    0.191557
C      2.023696   -2.257607    0.180217
C      3.370505   -1.949399   -0.019132
C      3.761827   -0.624601   -0.217370
C      2.810757    0.399346   -0.198920
C      1.450027    0.106323    0.028874
H      0.036782    3.057674    0.955831
H      1.009181    3.078410   -0.577985
H      1.737301    2.578641    1.008856
H     -4.703686   -0.231176   -0.325536
H     -4.032221    2.115430   -0.681714
H     -1.678759    2.774758   -0.538949
H     -4.042645   -2.548478    0.136601
H     -0.601956   -2.554593    0.516308
H      1.727916   -3.290834    0.311603
H      4.109951   -2.739674   -0.033586
H      4.804564   -0.390247   -0.388912
H      3.143538    1.412606   -0.377628
