22

C     -2.152242    0.499504    1.111933
C     -1.074809   -0.228447    0.297370
C     -1.700428   -0.832004   -0.969401
C      0.083185    0.746268   -0.033029
C      1.315196    0.075057   -0.687429
C      1.912815   -0.972853    0.209213
O      1.957493   -2.174685   -0.167379
O      2.414119   -0.619337    1.458825
N      2.338771    1.071528   -1.009165
H     -2.968651   -0.202477    1.386066
H     -2.583356    1.341112    0.527897
H     -1.717982    0.900627    2.052575
H     -0.689633   -1.059486    0.927634
H     -0.982373   -1.507011   -1.478238
H     -2.591211   -1.441561   -0.706098
H     -2.012644   -0.031482   -1.673873
H     -0.296359    1.542580   -0.711031
H      0.411313    1.248158    0.904571
H      1.004830   -0.403704   -1.641224
H      2.816006   -1.316869    2.073609
H      2.566197    1.630512   -0.154028
H      1.949765    1.734570   -1.718796
