16

C      1.682666    0.766090   -0.164718
C      0.944972   -0.514995    0.225490
C     -0.576963   -0.410204   -0.013357
C     -1.207259    0.609457    0.894057
O     -1.231042    0.424747    2.141040
O     -1.753748    1.770300    0.355557
N     -1.228087   -1.707136    0.183352
H      2.774410    0.623331   -0.020998
H      1.353579    1.615557    0.470182
H      1.494876    1.010419   -1.231872
H      1.151964   -0.746045    1.293505
H      1.353739   -1.348585   -0.386160
H     -0.750324   -0.094934   -1.066855
H     -2.176119    2.471130    0.952701
H     -0.878908   -2.370729   -0.546151
H     -0.953757   -2.098404    1.114582
