17

C      0.492882   -1.097415    0.082009
C     -0.663502   -0.406483   -0.661207
C     -1.058059    0.885000    0.010159
O     -1.543760    0.877415    1.173641
O     -0.870844    2.093292   -0.653751
N     -1.809152   -1.314419   -0.751657
C      1.753262   -0.282835    0.022723
O      2.509444   -0.372945   -0.981018
N      2.081280    0.622976    1.076262
H      0.213407   -1.284296    1.142002
H      0.687761   -2.087058   -0.386282
H     -0.325155   -0.179331   -1.697245
H     -1.123065    2.971143   -0.215706
H     -2.183502   -1.504264    0.207085
H     -2.568047   -0.844323   -1.297596
H      2.950437    1.199124    1.023873
H      1.456613    0.724419    1.906709
