21

C      2.439255    0.216043   -0.611543
C      1.115262    0.953693   -0.816892
C     -0.013753    0.443972    0.111299
C     -0.431114   -1.021222   -0.201210
C     -1.514774   -1.511477    0.730660
O     -2.719007   -1.527234    0.360970
O     -1.197993   -1.907836    2.026848
O     -0.795800   -1.194610   -1.550145
C     -1.197599    1.386474    0.063950
O     -1.580678    1.878490   -1.031236
O     -1.902628    1.691601    1.225325
H      2.369092   -0.828893   -0.977715
H      2.724842    0.216649    0.461781
H      3.238716    0.726811   -1.188668
H      0.812157    0.867307   -1.883060
H      1.295180    2.031412   -0.606765
H      0.382250    0.467326    1.151289
H      0.447111   -1.674488   -0.017697
H     -0.242809   -1.885083    2.363383
H     -1.589235   -0.627961   -1.731511
H     -1.638472    1.299027    2.120936
