43

C     -2.818938   -0.275049   -1.535138
C     -3.376648    0.085259   -0.148168
C     -2.198170    0.305216    0.823106
O     -1.389306   -0.858859    0.912632
C     -0.776380   -1.168648   -0.331781
C     -1.836550   -1.450354   -1.419492
O     -1.213879   -1.661059   -2.660472
O      0.080913   -0.111657   -0.751056
C      1.441376   -0.348209   -0.416402
C      1.704128   -0.167584    1.098417
C      3.200863    0.115878    1.385990
C      4.106685   -0.214818    0.180035
O      3.748546    0.515421   -0.986801
C      2.347337    0.592765   -1.256799
C      1.895918    2.025954   -1.164829
O      2.445037    2.820093   -0.354656
O      0.840662    2.468481   -1.957075
O      4.111819   -1.593474   -0.087900
O      3.632876   -0.553238    2.545297
O      0.920913    0.886449    1.599284
C     -2.700418    0.667758    2.189859
O     -2.945882   -0.231336    3.038935
O     -2.939146    2.001744    2.505428
O     -4.206476   -0.954867    0.310173
O     -3.864324   -0.622322   -2.406181
H     -2.270726    0.606351   -1.946504
H     -3.958401    1.033500   -0.244310
H     -1.594804    1.172967    0.470796
H     -0.231514   -2.131143   -0.192145
H     -2.410489   -2.363205   -1.131571
H     -0.785331   -2.555674   -2.617373
H      1.730334   -1.382162   -0.716310
H      1.396520   -1.117435    1.595714
H      3.323422    1.204511    1.577996
H      5.140712    0.089914    0.459408
H      2.213813    0.291063   -2.318595
H      0.511016    3.424387   -1.897063
H      4.792876   -1.739604   -0.794989
H      3.548896   -1.528789    2.382458
H      0.894109    0.779244    2.585997
H     -3.293400    2.264425    3.417356
H     -4.888951   -0.543754    0.902319
H     -4.329037    0.221864   -2.645585
