24

C      2.585738    0.095948    0.203445
C      1.079678    0.174140    0.502215
C      0.354511   -1.134132    0.102160
C     -1.157131   -0.989523    0.359051
C     -1.688144    0.308300   -0.275676
C     -0.816263    1.492446    0.181947
O      0.534621    1.283370   -0.194803
O     -1.284256    2.668927   -0.419290
O     -1.658605    0.195892   -1.677164
O     -1.833572   -2.101156   -0.169315
O      0.862342   -2.204254    0.857947
O      2.823357   -0.108262   -1.164393
H      3.084627    1.031146    0.546996
H      3.039694   -0.742382    0.773272
H      0.982110    0.325812    1.603435
H      0.522345   -1.320053   -0.985554
H     -1.322106   -0.944172    1.462340
H     -2.735578    0.467048    0.074560
H     -0.907134    1.607509    1.289793
H     -0.758888    3.413371   -0.025157
H     -2.323002    0.841834   -2.033271
H     -2.742704   -2.098776    0.229897
H      0.638604   -3.036752    0.365523
H      2.719757    0.773718   -1.607958
