16

C     -0.245740   -0.546420   -0.682274
C      0.574498    0.715546   -0.312565
C      0.918676    0.757678    1.157018
O      0.478812    1.695566    1.873087
O      1.714182   -0.225125    1.742095
O      1.745197    0.803401   -1.086116
C     -1.559016   -0.591400    0.052969
O     -2.460922    0.251978   -0.201127
O     -1.769596   -1.556049    1.033427
O     -0.464712   -0.614278   -2.069744
H      0.337514   -1.448596   -0.397849
H     -0.042079    1.610873   -0.550792
H      2.086548   -0.998933    1.206038
H      2.257600   -0.037747   -0.962399
H     -2.643377   -1.595293    1.544417
H     -0.927584    0.219999   -2.346184
