14

C     -0.066888    1.502072   -0.338565
C      0.820473    0.408645   -0.858451
O      0.969459    0.277527   -2.102956
C      1.486184   -0.539525    0.049350
O      1.340578   -0.441182    1.297309
O      2.283086   -1.553250   -0.474068
C     -1.471007    1.001369   -0.192733
O     -2.246488    1.016877   -1.185714
N     -1.925966    0.469325    1.051435
H      0.309285    1.876194    0.637649
H     -0.052389    2.360860   -1.044482
H      2.748915   -2.215187    0.135152
H     -1.295121    0.439756    1.882729
H     -2.900120    0.104972    1.143346
