22

C      2.956403   -0.987016   -0.059848
C      2.343205    0.229172   -0.679762
O      3.038267    0.918920   -1.473529
N      1.004088    0.649328   -0.364019
C      0.608984    1.943723   -0.277801
C     -0.730329    2.007736    0.065088
C     -1.172488    0.708931    0.180506
C     -2.435014    0.194764    0.472817
C     -2.590713   -1.201287    0.469975
C     -1.499033   -2.040872    0.164881
C     -0.236646   -1.494688   -0.129683
C     -0.093657   -0.101247   -0.093431
O     -1.471947    3.171236    0.246569
H      2.888254   -1.842224   -0.763464
H      4.027515   -0.795334    0.161720
H      2.448385   -1.236647    0.894967
H      1.257550    2.795546   -0.440011
H     -3.273753    0.844020    0.686612
H     -3.557568   -1.634717    0.690318
H     -1.636447   -3.114256    0.147546
H      0.577434   -2.150274   -0.395579
H     -2.452490    3.135186    0.496130
