37

C      5.612479   -0.831436    0.200294
C      4.287915   -0.365721    0.798141
C      3.213946   -0.214855   -0.289185
C      1.904905    0.383238    0.249738
C      1.139633   -0.589765    1.163267
C     -0.243352   -0.040521    1.575519
C     -1.418597   -0.707215    0.835920
C     -1.481428   -0.409660   -0.674336
C     -1.748944    1.065346   -1.018542
C     -3.049944    1.565976   -0.446096
O     -3.030324    2.346330    0.494545
C     -4.370669    1.125052   -1.016476
C     -5.174380    0.395896    0.018294
O     -5.863134    1.045889    0.848299
O     -5.142403   -0.993468    0.097769
H      5.989999   -0.085432   -0.531103
H      5.483062   -1.810819   -0.307809
H      6.364922   -0.947547    1.008524
H      4.448136    0.608833    1.308803
H      3.963795   -1.112340    1.553630
H      3.010872   -1.201583   -0.760782
H      3.599240    0.463586   -1.081880
H      1.272292    0.647833   -0.621658
H      2.120516    1.325357    0.800154
H      1.038268   -1.579864    0.667184
H      1.736107   -0.747791    2.087105
H     -0.384813   -0.249108    2.658768
H     -0.291350    1.064513    1.474627
H     -2.369154   -0.388732    1.314860
H     -1.353352   -1.808202    0.976625
H     -2.286096   -1.031150   -1.120861
H     -0.538417   -0.734879   -1.160681
H     -1.782409    1.172853   -2.123973
H     -0.910253    1.701066   -0.665703
H     -4.933292    2.018184   -1.363466
H     -4.214314    0.466604   -1.897609
H     -4.599462   -1.546473   -0.553794
