22

C      1.944129   -0.253429   -0.864575
C      1.227104   -0.134945    0.491132
C     -0.024492   -1.039079    0.630509
C     -1.245368   -0.475255   -0.128419
C     -1.574402    0.957442    0.333139
C     -0.334634    1.805058    0.432491
O     -0.433031    3.057722    0.353683
O      0.907042    1.236677    0.733177
O     -2.197323    0.904554    1.590402
O     -1.017536   -0.506434   -1.514116
O      0.263192   -2.345126    0.199478
O      3.165065    0.431261   -0.805513
H      1.321693    0.190697   -1.670033
H      2.139385   -1.321799   -1.104870
H      1.952743   -0.455316    1.270998
H     -0.281637   -1.068703    1.716187
H     -2.119529   -1.128709    0.105736
H     -2.273386    1.414399   -0.406426
H     -2.652351    1.777177    1.724541
H     -1.904383   -0.438008   -1.955480
H     -0.447821   -2.933240    0.566319
H      3.585540    0.325058   -1.698360
