20

C      0.355976   -0.758542   -0.584615
C     -1.182505   -0.842188   -0.513505
C     -1.822324    0.560720   -0.527684
C     -1.154976    1.473039    0.469326
O     -1.774823    2.479063    0.905672
C      0.229553    1.226730    0.908428
C      0.938500    0.174610    0.458560
C      2.339271   -0.028408    0.897140
O      2.852869    0.712296    1.779491
O      3.104591   -1.045474    0.333002
O     -1.787856    1.121245   -1.817269
O     -1.569400   -1.513093    0.659475
H      0.667486   -0.407085   -1.591161
H      0.769775   -1.781796   -0.453761
H     -1.555540   -1.406021   -1.400652
H     -2.891326    0.453425   -0.240545
H      0.663514    1.916954    1.622117
H      4.063634   -1.196619    0.622196
H     -0.844226    1.341065   -2.033164
H     -1.402195   -2.479921    0.506951
