20

C      1.317441    0.480653    0.647843
C      0.193652    0.153756   -0.352799
C     -1.074398   -0.385913    0.356758
C     -2.173548   -0.608008   -0.654498
O     -2.119635   -1.592437   -1.438929
O     -3.233622    0.288413   -0.759872
N     -0.789954   -1.643757    1.056531
O     -0.130213    1.325908   -1.062439
C      2.514094    1.055030   -0.052626
O      2.702988    2.299964   -0.056990
O      3.402572    0.225478   -0.730505
H      0.948996    1.202941    1.409265
H      1.644468   -0.439099    1.176005
H      0.575645   -0.630296   -1.051540
H     -1.422577    0.369443    1.097940
H     -3.296790    1.103185   -0.161512
H     -1.693394   -2.055168    1.388372
H     -0.260187   -1.426019    1.930860
H     -0.371847    1.053949   -1.986275
H      3.266311   -0.778023   -0.755587
