18

C      1.103650   -0.541658    0.297436
C     -0.202041    0.262106    0.065140
C     -1.296448   -0.664986   -0.530088
O     -1.556684   -1.746959    0.323600
C      0.078132    1.424135   -0.882449
O     -0.543530    1.529775   -1.974362
O      1.024579    2.397659   -0.564743
N     -0.692583    0.806914    1.340213
O      1.605695   -1.029975   -0.917792
H      0.908963   -1.393528    0.987157
H      1.871303    0.102022    0.781281
H     -0.971750   -1.051557   -1.523108
H     -2.234973   -0.082430   -0.674940
H     -2.260532   -2.287091   -0.121180
H      1.558214    2.372377    0.294656
H      0.040678    1.410854    1.777452
H     -0.863530    0.026084    2.015325
H      2.430857   -1.533741   -0.693596
