25

C      3.067758    0.666829    1.790215
C      2.135775    1.666081    1.518093
C      0.933617    1.346817    0.886615
C      0.641638    0.018142    0.529575
C      1.586007   -1.003406    0.812985
C      2.798552   -0.656908    1.438364
C      1.327298   -2.432898    0.510380
O      0.151240   -2.859804    0.358488
O      2.389707   -3.329557    0.427487
N     -0.562621   -0.266131   -0.201829
C     -1.849241    0.246232    0.176220
O     -1.998425    0.860510    1.267476
C     -3.024516    0.063949   -0.732514
C     -2.989601    1.088525   -1.819031
O     -2.419346    0.830594   -2.912803
O     -3.549456    2.344146   -1.605233
H      4.001717    0.917708    2.276470
H      2.350654    2.692832    1.784949
H      0.240075    2.143065    0.647919
H      3.535575   -1.414626    1.673984
H      2.228728   -4.310918    0.234352
H     -0.500375   -0.877346   -1.047017
H     -3.005056   -0.956971   -1.171208
H     -3.970177    0.167506   -0.157865
H     -3.519524    3.055628   -2.325697
