24

C      2.712448    1.579467    0.514850
C      2.004078    0.678319   -0.443005
O      1.671186    1.116940   -1.577096
N      1.664534   -0.658788   -0.048283
C      0.917556   -1.578414   -0.905116
C     -0.496518   -1.821703   -0.359859
C     -1.394294   -0.569984   -0.414483
C     -1.370568    0.225230    0.897400
C     -2.227165    1.449373    0.782622
O     -1.709679    2.549142    0.453516
O     -3.600769    1.374752    0.993878
H      3.141652    2.453933   -0.018815
H      1.995632    1.938259    1.282373
H      3.536082    1.026858    1.013341
H      1.911138   -0.976388    0.916478
H      0.863585   -1.205341   -1.950629
H      1.458221   -2.548572   -0.935066
H     -0.440569   -2.228010    0.674000
H     -0.963195   -2.610755   -0.989236
H     -2.440984   -0.897894   -0.601240
H     -1.098413    0.083696   -1.264719
H     -0.335728    0.529580    1.153652
H     -1.752282   -0.408218    1.727007
H     -4.045949    0.498517    1.239292
