32

C     -4.406971    0.226682   -2.173600
C     -3.018745    0.408377   -1.652496
O     -2.061265    0.531659   -2.463670
N     -2.779587    0.404535   -0.237781
C     -1.429830    0.483703    0.329506
C     -0.829119   -0.927796    0.435571
C      0.613284   -0.883311    0.851330
C      1.112368   -1.057084    2.138779
N      2.452211   -0.871582    2.154216
C      2.800489   -0.571358    0.890773
C      4.076566   -0.275688    0.413159
C      4.211910    0.033852   -0.952774
C      3.081358    0.044346   -1.799972
C      1.805302   -0.256097   -1.289639
C      1.704036   -0.564110    0.067182
C     -1.471532    1.157239    1.679395
O     -2.284597    0.766201    2.558777
O     -0.582456    2.183981    1.986406
H     -5.104426    0.891861   -1.622822
H     -4.453588    0.477074   -3.254787
H     -4.719301   -0.828714   -2.031518
H     -3.586258    0.194605    0.393627
H     -0.791690    1.097463   -0.344055
H     -0.897241   -1.434570   -0.551159
H     -1.410936   -1.537435    1.161278
H      0.524817   -1.291243    3.016953
H      3.082223   -0.933937    2.984652
H      4.935830   -0.280382    1.071226
H      5.188330    0.268338   -1.356224
H      3.197132    0.286757   -2.848288
H      0.934222   -0.246474   -1.931833
H      0.107466    2.503107    1.316946
