16

C      0.442603   -0.436967    0.610177
C      1.066224    0.148870   -0.664322
C      2.449058    0.662344   -0.396526
O      3.346951   -0.106451   -0.091197
C     -0.960714   -1.004540    0.360723
C     -1.953437    0.078903    0.069934
O     -2.332690    0.288507   -1.113356
O     -2.435405    0.872848    1.105831
H      0.396614    0.343016    1.402546
H      1.087744   -1.262349    0.983802
H      0.442914    0.990340   -1.035385
H      1.115099   -0.627922   -1.457930
H      2.660432    1.722792   -0.488116
H     -1.293675   -1.550529    1.269304
H     -0.933407   -1.735906   -0.476680
H     -3.098310    1.617044    0.924535
