20

C      0.183158    0.215366    0.147290
C     -1.043115   -0.623503    0.562711
C     -1.991977    0.197220    1.403982
O     -2.280938   -0.184689    2.568660
O     -2.563578    1.369890    0.914527
N     -1.731070   -1.163279   -0.612663
C      1.311436   -0.643662   -0.462947
C      2.548998    0.189076   -0.678992
O      2.647846    0.926758   -1.695346
O      3.571560    0.194400    0.265851
O      0.912017   -1.252072   -1.666871
H     -0.118309    1.007207   -0.573304
H      0.584455    0.724292    1.052745
H     -0.684106   -1.478430    1.179373
H     -2.361519    1.713057   -0.016209
H     -2.530781   -1.756295   -0.290943
H     -2.129182   -0.380399   -1.180665
H      1.564314   -1.453837    0.254571
H      3.512652   -0.363463    1.109263
H      0.598139   -0.537351   -2.281034
