30

C      4.443087    0.694529    0.882490
C      3.051210    0.190669    1.082694
O      2.820268   -0.663923    1.980568
N      1.984457    0.694113    0.267024
C      0.597408    0.238399    0.427234
C     -0.384718    1.188187   -0.292400
C     -1.845275    0.713230   -0.093702
C     -1.906265   -0.839216   -0.017032
O     -0.843617   -1.411664   -0.757599
C      0.404484   -1.219936   -0.099377
O      1.429123   -1.543713   -1.002394
C     -3.238770   -1.387390   -0.545769
O     -3.346928   -1.186679   -1.931478
O     -2.376987    1.261498    1.086524
O     -0.219755    2.526118    0.114346
H      4.493143    1.765927    1.167607
H      5.160837    0.119822    1.505744
H      4.728604    0.586336   -0.184692
H      2.208622    1.428557   -0.442780
H      0.344557    0.258045    1.512178
H     -0.156948    1.143711   -1.381403
H     -2.425118    1.089342   -0.968595
H     -1.837575   -1.157224    1.051590
H      0.469201   -1.916580    0.769922
H      1.351352   -2.517144   -1.181287
H     -4.093564   -0.927766    0.003485
H     -3.276307   -2.480190   -0.349725
H     -3.947246   -0.408392   -2.069076
H     -3.365187    1.213253    1.007133
H     -0.222095    2.548079    1.106846
