19

C     -0.459034    1.750510    0.819818
C     -0.531147    0.719519   -0.315721
C      0.879240    0.187278   -0.702227
C      1.524354   -0.616321    0.397626
O      2.304060   -0.053814    1.212610
O      1.242527   -1.972745    0.536833
N      0.841910   -0.599762   -1.938770
C     -1.495525   -0.385843    0.035986
O     -2.320914   -0.795711   -0.823815
O     -1.464704   -0.974793    1.297536
H      0.206702    2.591842    0.531850
H     -0.071054    1.292419    1.754252
H     -1.470080    2.164920    1.021995
H     -0.938977    1.259636   -1.199762
H      1.531599    1.068683   -0.897183
H      1.661516   -2.516879    1.281391
H      0.176055   -1.399319   -1.835299
H      0.485062    0.005657   -2.713608
H     -2.101590   -1.725279    1.536488
