21

C     -2.564104    0.742985   -0.750976
C     -1.420942    0.271457    0.158660
C     -0.598458   -0.831008   -0.532220
C      0.467263   -1.380689    0.382831
O      0.137170   -1.975825    1.398321
C      1.928864   -1.230927    0.059295
C      2.577597   -0.291217    1.023924
O      3.048719   -0.725268    2.109125
O      2.624715    1.069975    0.740033
N     -0.555073    1.394606    0.527971
H     -3.161240    1.526034   -0.237310
H     -2.163979    1.161788   -1.699194
H     -3.238645   -0.106751   -0.989808
H     -1.873927   -0.149265    1.084470
H     -0.143579   -0.425171   -1.461928
H     -1.268577   -1.667423   -0.827991
H      2.421935   -2.225735    0.108863
H      2.068545   -0.841195   -0.971276
H      3.044996    1.722250    1.391156
H     -1.119878    2.092727    1.064445
H     -0.211404    1.868654   -0.339385
