37

C      3.508245   -0.662163   -0.501238
C      2.175575   -0.337438   -0.772830
C      1.494577    0.598033    0.028042
C      2.175112    1.209193    1.086328
C      3.506973    0.885896    1.359600
C      4.187243   -0.056165    0.568951
C      5.597128   -0.403660    0.852785
O      6.208731    0.141157    1.811430
O      6.262683   -1.337466    0.062646
O      0.157213    0.964376   -0.192938
C     -0.781098    0.279162   -1.028396
C     -1.190576   -1.088899   -0.406820
C     -2.685352   -1.359059   -0.632037
C     -3.501023   -0.222964    0.007144
C     -2.867156    1.175793   -0.269516
O     -1.885439    1.137061   -1.299506
C     -2.344128    1.864783    1.010482
O     -3.408347    2.194764    1.862801
O     -4.834788   -0.271456   -0.437818
O     -3.054668   -2.581328   -0.045913
O     -0.408969   -2.137553   -0.923834
H      4.007433   -1.385419   -1.133873
H      1.697888   -0.810175   -1.617147
H      1.664915    1.935985    1.705995
H      4.002730    1.373670    2.189603
H      7.227898   -1.582670    0.248386
H     -0.308347    0.100097   -2.016520
H     -1.011930   -1.052100    0.690886
H     -2.890192   -1.383410   -1.729633
H     -3.521393   -0.401019    1.105713
H     -3.672325    1.841225   -0.652156
H     -1.772585    2.782312    0.740750
H     -1.658354    1.188927    1.561999
H     -3.831892    3.010833    1.488206
H     -4.832017   -0.098857   -1.415993
H     -2.803719   -3.296882   -0.686693
H     -0.610047   -2.214582   -1.893358
