21

C     -2.245513    0.810390   -1.211844
C     -1.325626   -0.142829   -0.435588
C      0.064710    0.493713   -0.231144
C      1.069234   -0.467977    0.435550
C      2.363245    0.244850    0.729403
O      3.063003    0.710749   -0.210324
O      2.786054    0.394359    2.046603
N      1.304650   -1.640467   -0.411423
N     -1.920396   -0.496630    0.856224
H     -1.811092    1.034246   -2.209478
H     -3.239992    0.340026   -1.364802
H     -2.381262    1.763413   -0.656936
H     -1.211293   -1.068958   -1.041444
H      0.468855    0.814510   -1.217287
H     -0.042823    1.404845    0.399254
H      0.641761   -0.813306    1.402677
H      3.652435    0.872621    2.263020
H      1.770330   -1.343952   -1.300459
H      1.959582   -2.287543    0.085709
H     -2.144025    0.376997    1.387144
H     -2.821835   -0.999057    0.685147
