29

C      5.106009    0.441371   -0.187984
C      3.676906    0.833064    0.002356
O      3.333676    2.036633   -0.151536
N      2.701455   -0.161341    0.337598
C      1.292205    0.184024    0.523263
C      0.469359   -1.059554    0.887909
C     -0.988195   -0.726264    1.255275
C     -1.834948   -0.228507    0.064542
C     -3.270075    0.096647    0.534601
C     -4.077948    0.740716   -0.553722
O     -4.919822    0.061446   -1.198211
O     -3.884883    2.079874   -0.879770
N     -1.838412   -1.234719   -1.003227
H      5.458356   -0.127084    0.697929
H      5.744946    1.341312   -0.313657
H      5.197427   -0.196435   -1.091617
H      3.016797   -1.152715    0.444860
H      1.207239    0.937594    1.336282
H      0.907988    0.626994   -0.419471
H      0.499830   -1.789232    0.050210
H      0.939159   -1.547059    1.770205
H     -0.990842    0.039241    2.062367
H     -1.458276   -1.644140    1.672380
H     -1.380827    0.709031   -0.323873
H     -3.778652   -0.828927    0.883909
H     -3.230567    0.798590    1.395641
H     -3.206572    2.646445   -0.384694
H     -2.421260   -2.053538   -0.712422
H     -2.270073   -0.823467   -1.862104
