29

C      2.259146   -2.263894   -0.630135
C      2.086008   -0.836846   -0.103692
C      3.373604   -0.077769   -0.246712
O      3.765695    0.301404   -1.383423
O      4.149717    0.184739    0.877740
N      1.009173   -0.147596   -0.821421
C      0.459552    1.095018   -0.358243
O      0.920461    1.647511    0.677591
C     -0.678566    1.741689   -1.092878
C     -1.995218    1.684126   -0.299766
C     -2.631083    0.272061   -0.254955
C     -1.889109   -0.654975    0.666756
O     -1.695041   -0.336743    1.871241
O     -1.440402   -1.884841    0.195748
N     -4.030168    0.344441    0.170708
H      1.312520   -2.830650   -0.504531
H      2.529211   -2.254845   -1.708235
H      3.057903   -2.787390   -0.062077
H      1.816236   -0.903356    0.973654
H      5.025256    0.688027    0.798560
H      0.601353   -0.583672   -1.679951
H     -0.415558    2.807343   -1.267501
H     -0.815348    1.274546   -2.091868
H     -1.843208    2.080226    0.728689
H     -2.708252    2.372850   -0.803615
H     -2.606894   -0.162069   -1.279567
H     -0.945512   -2.524628    0.805481
H     -4.576118    0.863724   -0.555058
H     -4.095358    0.891567    1.060689
