17

C      1.204613   -0.557531   -0.408186
C      2.323902    0.276391    0.148807
O      3.466565    0.099715   -0.241294
C     -0.162803   -0.175118    0.193623
C     -1.250045   -1.163661   -0.265244
O     -2.487785   -0.848154    0.314990
C     -0.544409    1.234990   -0.177654
O     -0.676543    1.563747   -1.387874
O     -0.755513    2.178739    0.822708
H      1.180483   -0.444494   -1.514347
H      1.424172   -1.622904   -0.178123
H      2.132436    1.038031    0.898640
H     -0.086731   -0.245096    1.302158
H     -1.355907   -1.125471   -1.371033
H     -0.961326   -2.205043    0.006191
H     -2.438057   -1.135129    1.264159
H     -1.013051    3.130988    0.592480
