33

C      5.019762   -2.338321    0.305048
O      3.617812   -2.100583    0.230682
C      3.025001   -0.830468    0.291677
C      1.632913   -0.743107    0.208489
C      0.977354    0.499520    0.262183
C      1.741378    1.684712    0.400399
C      3.140955    1.586254    0.497537
C      3.777395    0.345517    0.440344
C      1.116908    3.030035    0.398218
O      1.711285    4.003854    0.935225
O     -0.107449    3.244892   -0.228820
N     -0.459889    0.536646    0.274415
C     -1.264413   -0.232400   -0.635317
O     -0.735813   -0.724736   -1.669996
C     -2.715609   -0.423819   -0.397869
C     -3.261473   -0.308120    0.895030
C     -4.631147   -0.497445    1.104634
C     -5.468779   -0.808966    0.031645
C     -4.937811   -0.937270   -1.253391
C     -3.569003   -0.750026   -1.468956
H      5.206966   -3.429038    0.229958
H      5.538356   -1.829812   -0.535018
H      5.417619   -1.975289    1.276202
H      1.055273   -1.655864    0.130612
H      3.750285    2.476351    0.596750
H      4.856134    0.312980    0.509702
H     -0.531259    4.164854   -0.242406
H     -0.931414    1.190777    0.937611
H     -2.633251   -0.094595    1.749453
H     -5.042429   -0.408466    2.101907
H     -6.528355   -0.955654    0.196777
H     -5.587265   -1.182053   -2.083973
H     -3.180035   -0.850361   -2.474684
