30

C     -0.682203    1.385227    0.643106
C     -2.103265    0.824306    0.343115
C     -2.173398   -0.697245    0.598730
C     -1.186059   -1.473397   -0.310977
C      0.128241   -0.687692   -0.587133
C      0.436200    0.314177    0.548082
N      1.714363    0.993267    0.307556
C      2.909848    0.577606    0.620608
N      3.133420   -0.664249    1.302696
N      4.030692    1.395345    0.285085
O      1.193682   -1.590071   -0.737726
O     -1.809423   -1.783904   -1.532544
O     -3.482160   -1.171821    0.404901
O     -2.443494    1.105592   -0.992524
O     -0.651373    1.949487    1.930234
H     -0.459252    2.184545   -0.105209
H     -2.834360    1.331842    1.016669
H     -1.880661   -0.882652    1.659981
H     -0.938595   -2.421299    0.224372
H      0.014699   -0.095851   -1.527585
H      0.468499   -0.225449    1.519831
H      4.107768   -0.954211    1.539966
H      2.364708   -1.312169    1.576571
H      5.000315    1.092814    0.526362
H      3.894648    2.306387   -0.207198
H      1.113304   -1.983356   -1.645625
H     -1.304854   -2.540615   -1.930492
H     -4.022005   -0.851602    1.174351
H     -3.432178    1.045065   -1.060281
H     -1.107106    2.829922    1.871628
