49

C      8.727579    0.003805   -0.036713
C      8.201889   -0.185196    1.243714
C      6.821627   -0.320204    1.422383
C      5.952446   -0.261472    0.317886
C      6.493040   -0.077856   -0.967994
C      7.874109    0.055882   -1.141462
C      4.487975   -0.413992    0.508623
C      3.990171   -1.464961    1.295636
O      2.683668   -1.624476    1.474498
C      1.780877   -0.815106    0.931728
C      2.188060    0.272159    0.129587
C      3.564088    0.473751   -0.076047
O      3.968421    1.453306   -0.762099
C      1.214684    1.119099   -0.427509
C     -0.143131    0.881927   -0.194167
C     -0.551508   -0.209572    0.596917
C      0.420425   -1.044775    1.160285
O     -1.900180   -0.497921    0.865384
C     -3.033964    0.075368    0.209928
C     -3.192597   -0.540815   -1.205802
C     -4.682008   -0.669288   -1.617160
C     -5.542922    0.444322   -0.983413
C     -5.289707    0.550184    0.558170
O     -4.179288   -0.227722    0.982106
C     -6.520373    0.092033    1.355257
O     -7.622866    0.919842    1.095698
O     -5.244419    1.668828   -1.603593
O     -5.164113   -1.924654   -1.205473
O     -2.465889    0.188556   -2.163395
H      9.796299    0.107215   -0.173124
H      8.864116   -0.226060    2.098871
H      6.430813   -0.457474    2.423080
H      5.849187   -0.054787   -1.838334
H      8.283129    0.195382   -2.133812
H      4.669104   -2.167440    1.761916
H      1.499153    1.965845   -1.040215
H     -0.858552    1.564929   -0.625493
H      0.114573   -1.881686    1.776158
H     -2.902018    1.180941    0.161745
H     -2.760103   -1.566142   -1.189849
H     -4.755034   -0.602200   -2.728900
H     -6.610411    0.198746   -1.197077
H     -5.107033    1.613617    0.839637
H     -6.779971   -0.951398    1.075232
H     -6.289137    0.097896    2.445146
H     -7.465199    1.766862    1.589000
H     -5.980512    2.294058   -1.372423
H     -5.989867   -2.103686   -1.727172
H     -2.844626    1.104333   -2.200491
