20

C      0.957836    0.260983    1.250946
C      0.889038   -0.124002   -0.243481
C     -0.526415   -0.619168   -0.645184
C     -1.599073    0.430648   -0.494512
O     -1.781395    1.256379   -1.429110
C     -2.431153    0.517290    0.722877
O     -2.275693   -0.312005    1.657784
O     -3.397631    1.511564    0.857772
C      1.874058   -1.242219   -0.494531
O      1.780322   -2.327425    0.141941
O      2.886777   -1.087117   -1.438020
O      1.262592    0.974595   -1.044956
H      1.995463    0.550473    1.524413
H      0.295822    1.124697    1.470987
H      0.645722   -0.590620    1.893235
H     -0.798979   -1.518110   -0.049737
H     -0.507496   -0.943251   -1.709566
H     -3.558266    2.201704    0.134113
H      3.549766   -1.832009   -1.616279
H      0.738706    1.767591   -0.759006
