24

C      1.167546    0.600475    0.851137
C      2.246212    1.107861    0.120769
C      2.487803    0.657665   -1.183304
C      1.645142   -0.301148   -1.752643
C      0.565474   -0.810863   -1.025489
C      0.316636   -0.367184    0.287312
C     -0.862782   -0.898060    1.081390
C     -2.211134   -0.497823    0.444631
C     -2.389190    0.989914    0.429036
O     -2.838404    1.582926    1.446063
O     -2.015985    1.720921   -0.694462
N     -0.757154   -2.353455    1.218628
O      3.559370    1.156708   -1.920306
H      0.995951    0.966688    1.855644
H      2.892286    1.852093    0.568759
H      1.825809   -0.650432   -2.761325
H     -0.076882   -1.547063   -1.490713
H     -0.835982   -0.465434    2.107992
H     -3.042877   -0.950398    1.027322
H     -2.284290   -0.887347   -0.593482
H     -2.111025    2.729194   -0.713298
H     -1.000660   -2.814231    0.311696
H     -1.463704   -2.673584    1.920658
H      4.187841    1.852577   -1.536012
