20

C      0.562817    0.878191    0.437254
C     -0.540221   -0.184512    0.283918
C     -1.801831    0.420651   -0.369536
C     -2.887424   -0.614709   -0.509546
O     -2.790908   -1.507112   -1.337076
O     -2.278232    1.479545    0.421198
O     -0.049530   -1.235955   -0.512381
C      1.770000    0.310730    1.133672
O      1.796265    0.285602    2.393356
C      2.902530   -0.251954    0.380208
O      2.892942   -0.260378   -0.880089
O      3.992648   -0.780735    1.064797
H      0.184358    1.733202    1.038539
H      0.846688    1.278746   -0.560333
H     -0.809467   -0.552897    1.304592
H     -1.535775    0.800182   -1.384477
H     -3.777424   -0.559508    0.109662
H     -2.882524    2.018959   -0.153573
H     -0.375638   -2.084990   -0.114356
H      4.780727   -1.173058    0.563486
