34

C     -1.016982    1.975593    1.177706
C     -1.509004    0.695429    1.308621
N     -0.491501   -0.171979    1.196559
C      0.599682    0.598796    1.022397
N      0.317307    1.920012    0.993131
C      1.971040    0.047450    0.785239
C      2.161613   -0.279374   -0.704247
C      3.566875   -0.805084   -1.060868
C      4.639055    0.222711   -0.793291
O      5.250820    0.247551    0.309014
O      4.921491    1.183218   -1.759536
N      3.843507   -2.080973   -0.392066
C     -2.949915    0.303136    1.443326
C     -3.554404   -0.067905    0.079242
C     -4.961563   -0.585981    0.254092
O     -5.874066    0.184486    0.655380
O     -5.264792   -1.920023   -0.004972
N     -3.532439    1.084944   -0.825815
H     -1.593457    2.891017    1.194971
H     -0.539120   -1.215244    1.215053
H      2.095165   -0.868003    1.400830
H      2.719984    0.797675    1.115895
H      1.411563   -1.044031   -1.005452
H      1.961241    0.635014   -1.306509
H      3.564648   -0.996328   -2.157268
H      5.624483    1.893973   -1.595821
H      4.728927   -2.475473   -0.785861
H      4.006405   -1.927383    0.629078
H     -3.521719    1.138801    1.903637
H     -3.014580   -0.569873    2.129014
H     -2.931407   -0.873762   -0.369019
H     -4.556015   -2.572308   -0.318030
H     -3.923965    0.792511   -1.750952
H     -4.148881    1.841407   -0.447845
