42

C      0.209677    1.709512   -1.367664
C      0.979720    0.725776   -0.440947
C      1.823565    1.480397    0.592215
C      2.918412    0.490147    0.878144
C      3.054871   -0.235781   -0.461366
O      1.870000   -0.055793   -1.212092
C      3.330983   -1.733391   -0.275032
O      3.486707   -2.360765   -1.519063
O      4.117342    1.133254    1.224246
O      1.099029    1.778860    1.757397
O      0.091607   -0.141278    0.252652
C     -0.943392   -0.594917   -0.596500
C     -1.887533   -1.456960    0.199135
C     -2.929729   -0.455576    0.692823
O     -2.941563    0.663487   -0.167901
C     -1.828464    0.593054   -1.037878
O     -1.136539    1.834701   -0.953443
C     -2.368135    0.384122   -2.472435
O     -3.067725    1.519031   -2.908560
C     -2.657983    0.022187    2.127914
O     -2.855243   -1.025729    3.040787
O     -2.504381   -2.404618   -0.635230
H      0.261041    1.368389   -2.424614
H      0.669485    2.719840   -1.368030
H      2.274984    2.406593    0.163065
H      2.602587   -0.215207    1.684834
H      3.894508    0.211625   -1.039583
H      4.243238   -1.881269    0.347325
H      2.475300   -2.206906    0.252832
H      4.392094   -2.119655   -1.847543
H      4.005180    1.452922    2.157369
H      0.484511    2.521400    1.520791
H     -0.512934   -1.165995   -1.453125
H     -1.365305   -1.976705    1.036494
H     -3.940225   -0.921415    0.674894
H     -3.029704   -0.511495   -2.509715
H     -1.535430    0.194953   -3.180832
H     -3.966564    1.479777   -2.489038
H     -1.633172    0.453476    2.213116
H     -3.375285    0.833388    2.375562
H     -1.958773   -1.377319    3.281126
H     -1.846764   -3.136118   -0.770983
