44

C      1.336722   -2.348065   -0.785728
N      0.516545   -1.149460   -1.037015
C     -0.625576   -1.509497   -1.902885
C     -1.560998   -0.321056   -2.090917
C     -2.116672    0.052176   -0.754999
C     -3.440721    0.494955   -0.624635
C     -3.967574    0.805457    0.643644
C     -3.147042    0.672547    1.777887
C     -1.822909    0.244708    1.640256
C     -1.295571   -0.064729    0.376552
C      0.176813   -0.436328    0.236017
C      1.006751    0.862234    0.319362
C      2.487452    0.588759    0.364338
C      3.257572    0.647879   -0.808416
C      4.628393    0.353963   -0.773504
C      5.234581   -0.004732    0.442827
C      4.465732   -0.069096    1.609567
C      3.099878    0.222054    1.572289
O      6.595271   -0.302048    0.510462
O      5.387353    0.414185   -1.941198
O     -3.628652    0.967740    3.053260
O     -5.290756    1.244149    0.811994
C     -6.224464    1.421114   -0.248428
H      0.759718   -3.112297   -0.219356
H      2.245836   -2.087295   -0.205477
H      1.679104   -2.788314   -1.747028
H     -1.196017   -2.364773   -1.471262
H     -0.248335   -1.815506   -2.903373
H     -1.004462    0.540849   -2.518240
H     -2.374856   -0.606895   -2.792652
H     -4.053912    0.585216   -1.511249
H     -1.197839    0.166673    2.521673
H      0.433539   -1.066110    1.120726
H      0.765293    1.512698   -0.550693
H      0.727444    1.434700    1.231644
H      2.791404    0.912851   -1.749614
H      4.928053   -0.349630    2.547454
H      2.517606    0.156876    2.483203
H      7.194057   -0.270461   -0.305933
H      4.973622    0.668378   -2.830636
H     -4.577858    1.283205    3.212679
H     -6.397716    0.456047   -0.769806
H     -5.849025    2.181952   -0.964933
H     -7.187786    1.774926    0.172453
