21

C     -0.929589   -1.413121    0.033806
C     -1.826778   -0.261928    0.508218
C     -1.553376    1.051085   -0.235066
N     -0.413280    1.754056    0.346913
C      0.923682    1.237744    0.336561
O      1.835436    1.906110    0.895701
C      1.247082   -0.093673   -0.312855
C      0.546183   -1.248908    0.428360
N      2.692780   -0.340275   -0.345077
H     -1.020198   -1.541261   -1.067225
H     -1.304552   -2.351003    0.498464
H     -2.882265   -0.554331    0.316716
H     -1.719865   -0.114915    1.605469
H     -1.382895    0.874520   -1.318970
H     -2.452713    1.698786   -0.146128
H     -0.581792    2.685582    0.790065
H      0.892268   -0.066648   -1.366620
H      1.060553   -2.201227    0.171001
H      0.637098   -1.119424    1.529818
H      3.074433   -0.328381    0.629536
H      3.157788    0.427211   -0.883307
