18

C     -1.403510    0.446732    0.761942
C     -1.705767   -0.638545   -0.269737
N     -0.481400   -0.925734   -1.023224
C      0.437790    0.176831   -0.732695
C      0.087886    0.695434    0.657619
O      0.372895    2.064133    0.781286
C      1.884923   -0.240111   -0.853707
O      2.622747    0.321365   -1.705738
O      2.426403   -1.235635   -0.042165
H     -1.679873    0.115533    1.786956
H     -1.976043    1.368389    0.513467
H     -2.490660   -0.286773   -0.973647
H     -2.082231   -1.557495    0.234403
H     -0.087888   -1.822939   -0.652780
H      0.238636    0.984343   -1.474938
H      0.605407    0.113939    1.455716
H      1.357752    2.137388    0.881389
H      1.872932   -1.716853    0.655853
