41

C     -1.626063   -0.616339   -2.608978
C     -0.222879   -1.130167   -2.313743
N      0.402393   -0.265527   -1.300303
C      1.843515   -0.570953   -1.201267
C      2.504047    0.282905   -0.154345
C      1.755806    0.855236    0.903685
C      0.255696    0.717345    0.945784
C     -0.251939   -0.415361    0.024950
C     -1.777551   -0.389925   -0.076115
C     -2.568764   -0.363015    1.100061
C     -3.952443   -0.371290    0.967904
C     -4.559119   -0.428893   -0.240909
C     -3.835897   -0.498051   -1.424276
C     -2.426515   -0.508529   -1.343452
O     -5.930087   -0.422894   -0.070352
C     -6.200513   -0.359502    1.336740
O     -4.910370   -0.330543    1.962715
C      2.415247    1.624332    1.895476
C      3.810476    1.794156    1.858697
C      4.511320    1.192377    0.819241
C      3.888586    0.466084   -0.143416
O      4.830303   -0.013514   -1.034939
C      6.121139    0.441933   -0.607272
O      5.871678    1.208081    0.579038
H     -1.563277    0.387099   -3.082856
H     -2.122099   -1.312590   -3.320067
H     -0.266444   -2.187401   -1.963444
H      0.357214   -1.101648   -3.263180
H      2.331331   -0.368964   -2.180659
H      2.003997   -1.642561   -0.944153
H     -0.046132    0.517167    1.995287
H     -0.192360    1.684277    0.628164
H      0.029632   -1.394894    0.477585
H     -2.129352   -0.344456    2.087340
H     -4.348291   -0.559521   -2.376152
H     -6.763917    0.566376    1.577246
H     -6.763048   -1.260425    1.659831
H      1.847345    2.086652    2.693261
H      4.323439    2.373408    2.615037
H      6.579043    1.083901   -1.388721
H      6.774852   -0.424366   -0.373516
