24

C     -2.988691    0.399041    0.005127
C     -1.592362   -0.223834   -0.145561
C     -0.547626    0.859445   -0.497191
C      0.727333    0.302590   -1.165116
C      1.641223   -0.525797   -0.231229
C      2.097382    0.274847    0.956611
O      2.789975    1.315895    0.795031
O      1.751285   -0.134031    2.240751
N      2.811792   -1.022841   -0.957661
N     -1.213072   -0.921647    1.085441
H     -3.729684   -0.384158    0.272029
H     -3.307941    0.862916   -0.952485
H     -2.986522    1.176728    0.798802
H     -1.642416   -0.962947   -0.976108
H     -0.289086    1.455657    0.404578
H     -1.000223    1.570108   -1.223691
H      1.308172    1.162620   -1.565846
H      0.434996   -0.320038   -2.038804
H      1.078063   -1.409743    0.134462
H      2.046370    0.395955    3.051969
H      3.300562   -0.224084   -1.425121
H      2.487588   -1.671712   -1.711595
H     -1.293652   -0.266920    1.897828
H     -1.883466   -1.708049    1.247778
