22

C      3.049474   -0.061182    1.445017
O      2.027598   -0.447944    0.534691
C      1.594597    0.378035   -0.508150
O      2.105441    1.519996   -0.671806
C      0.477640   -0.069328   -1.412470
C     -0.898461    0.440044   -0.921842
C     -1.309645   -0.077113    0.466257
C     -2.606429    0.539791    0.885818
O     -2.611311    1.615150    1.542781
O     -3.808560   -0.052124    0.511229
N      0.504935   -1.523956   -1.594777
H      3.215275   -0.879193    2.175625
H      3.995945    0.128863    0.895923
H      2.742661    0.854536    1.993484
H      0.657479    0.391121   -2.409717
H     -0.872218    1.552614   -0.900664
H     -1.674409    0.146185   -1.662828
H     -0.531502    0.170487    1.219353
H     -1.438871   -1.179091    0.444955
H     -4.695177    0.361857    0.773325
H      0.350369   -2.008953   -0.682272
H     -0.274833   -1.799793   -2.235082
