46

C     -2.405057    1.874877   -1.271301
C     -2.405550    1.484170    0.233307
C     -1.246116    2.171916    0.978258
C      0.123471    1.586887    0.535352
C      0.189352    0.023589    0.578522
C     -1.049731   -0.631256   -0.107126
C     -2.313327   -0.020922    0.519484
C     -3.701080   -0.577319    0.196552
C     -4.647654    0.526978    0.701088
C     -3.780729    1.749161    0.749118
O     -4.177890    2.846453    1.109761
C     -0.976154   -2.149326    0.088052
C      0.230065   -2.711676   -0.668996
C      1.494504   -1.896399   -0.493669
C      2.698753   -2.460244   -0.938460
C      3.900176   -1.753594   -0.843765
C      3.916719   -0.467366   -0.298960
C      2.712600    0.112693    0.141306
C      1.483198   -0.570518    0.017515
O      5.148429    0.201018   -0.207669
C      5.320615    1.512686    0.319393
O      5.090025   -2.328364   -1.288229
H     -3.193808    1.333067   -1.834382
H     -1.438632    1.674024   -1.771273
H     -2.604668    2.963215   -1.376138
H     -1.261204    3.266435    0.783510
H     -1.363249    2.030223    2.075890
H      0.382074    1.946408   -0.482612
H      0.876728    2.010018    1.231830
H      0.172037   -0.254519    1.656984
H     -1.036033   -0.433677   -1.200240
H     -2.210368   -0.168067    1.624804
H     -3.818778   -0.730293   -0.898030
H     -3.890228   -1.536227    0.726190
H     -5.500847    0.672567    0.004841
H     -5.016250    0.289844    1.722285
H     -0.892691   -2.398244    1.169342
H     -1.894542   -2.635044   -0.306075
H      0.405803   -3.755391   -0.328203
H     -0.011966   -2.747014   -1.753738
H      2.702950   -3.457773   -1.361750
H      2.744646    1.092982    0.585317
H      5.004577    1.541331    1.383584
H      4.732891    2.243672   -0.275220
H      6.393338    1.788610    0.260785
H      5.113603   -3.259594   -1.687236
