30

C     -1.914219   -0.260365    1.634507
N     -1.209852   -0.455323    0.339085
C     -0.321710   -1.634345    0.497279
C     -2.230502   -0.772253   -0.694455
C     -0.407183    0.785696    0.014056
C      0.579201    0.649237   -1.193817
C      1.918040    0.079537   -0.810241
C      2.536916   -1.012216   -1.378466
N      3.751339   -1.174372   -0.816773
C      3.844932   -0.164780    0.075080
N      2.750659    0.618489    0.094843
C     -1.288956    2.007924   -0.197864
O     -1.822857    2.222974   -1.319174
O     -1.524935    2.902105    0.843805
H     -2.478482   -1.173002    1.932996
H     -1.195515   -0.025862    2.451591
H     -2.654690    0.566764    1.576977
H     -0.875435   -2.510912    0.903720
H      0.517797   -1.413626    1.193799
H      0.094600   -1.961199   -0.478780
H     -2.998365    0.026649   -0.772724
H     -2.773760   -1.710757   -0.441009
H     -1.778125   -0.923778   -1.694775
H      0.223073    1.032515    0.898538
H      0.139915    0.056697   -2.019309
H      0.791934    1.654083   -1.620743
H      2.134760   -1.647684   -2.156374
H      4.713032    0.002707    0.698741
H      2.597353    1.470849    0.678027
H     -1.118965    2.764248    1.761458
