27

C      2.397702    0.178026   -1.925854
C      1.069571   -0.184660   -1.637554
C      0.734915   -0.422434   -0.304970
C      1.656137   -0.305032    0.703464
C      2.978743    0.054453    0.449021
C      3.352042    0.297925   -0.889602
O      4.660147    0.659382   -1.202629
N      1.097130   -0.561298    1.899136
C     -0.201963   -0.845320    1.651527
C     -0.461544   -0.777782    0.285912
C     -1.794452   -0.959192   -0.382547
C     -2.467662    0.390714   -0.684739
C     -2.804098    1.115842    0.585383
O     -2.137537    2.128281    0.930334
O     -3.832961    0.652138    1.400030
O     -3.651086    0.178988   -1.408093
H      2.688403    0.367850   -2.951107
H      0.335042   -0.274355   -2.427291
H      3.693917    0.145799    1.256546
H      5.368600    0.754732   -0.484411
H      1.563785   -0.533730    2.832900
H     -0.927094   -1.076446    2.420981
H     -2.455806   -1.579426    0.261520
H     -1.642104   -1.516061   -1.332103
H     -1.774260    1.023607   -1.288211
H     -4.061548    1.123582    2.266955
H     -3.384020   -0.035585   -2.340242
