27

C      1.848290   -2.182136    0.673710
C      1.472338   -0.779304    0.179889
C      0.015886   -0.716272   -0.203928
C     -0.638114   -1.522633   -1.135333
N     -1.930900   -1.148486   -1.262484
C     -2.100537   -0.107945   -0.429453
C     -3.268308    0.626041   -0.225871
C     -3.222797    1.695136    0.686679
C     -2.024125    2.005270    1.365524
C     -0.859941    1.248648    1.139621
C     -0.935201    0.190124    0.231542
C      2.326278   -0.347481   -0.989351
O      2.685261   -1.193912   -1.852798
C      2.693213    1.065201   -1.183582
O      2.297425    1.947597   -0.375333
O      3.478894    1.430911   -2.272426
H      1.227693   -2.452441    1.554887
H      2.915899   -2.202540    0.980740
H      1.690790   -2.944895   -0.118616
H      1.657791   -0.091369    1.031667
H     -0.188485   -2.330805   -1.697199
H     -2.646166   -1.576401   -1.891571
H     -4.181151    0.383700   -0.754490
H     -4.111683    2.285270    0.867777
H     -2.000316    2.831835    2.063678
H      0.058564    1.488777    1.657534
H      3.739406    2.398112   -2.423905
