17

C     -0.107195    0.514695   -0.234953
C      0.846181   -0.655238   -0.513124
C      2.155967   -0.149593   -1.030229
O      2.341793   -0.029733   -2.270823
O      3.153312    0.229866   -0.137426
C     -1.517952    0.044543    0.169002
C     -2.424945    1.204441    0.192024
N     -3.138000    2.115817    0.209913
N     -1.500276   -0.584514    1.491588
H     -0.184048    1.130498   -1.160156
H      0.317953    1.156574    0.569136
H      0.395825   -1.343672   -1.261290
H      1.035136   -1.227737    0.419087
H      4.039668    0.589406   -0.471002
H     -1.904785   -0.676038   -0.586146
H     -1.024062   -1.511405    1.412006
H     -2.484573   -0.807910    1.769350
