19

C     -1.943684    1.299098   -0.342823
C     -0.614194    1.710420   -0.222567
C      0.403480    0.765729   -0.019825
C      0.076641   -0.610340    0.062653
C     -1.267046   -1.011026   -0.060209
C     -2.273672   -0.056732   -0.262495
O     -3.605691   -0.446173   -0.384973
C      1.112943   -1.541033    0.266355
O      0.869885   -2.776024    0.346289
C      2.430974   -1.093864    0.382114
C      2.708010    0.270808    0.294779
N      1.703109    1.166194    0.097873
H     -2.720774    2.036558   -0.499049
H     -0.378376    2.765467   -0.287541
H     -1.537771   -2.058234   -0.000029
H     -3.880252   -1.420169   -0.331679
H      3.238576   -1.798445    0.539040
H      3.730060    0.616880    0.384602
H      1.947780    2.180884    0.037486
