15

C     -1.740995    0.097100    0.349339
C     -0.736993   -0.949148   -0.141470
C      0.737346   -0.500300   -0.029366
C      1.083187    0.675946   -0.919879
O      0.430238    0.889262   -1.976151
O      2.180813    1.484622   -0.634026
O      1.081540   -0.253622    1.312215
H     -1.632751    0.261071    1.441771
H     -2.772624   -0.265743    0.157003
H     -1.604579    1.060599   -0.184190
H     -0.875204   -1.876753    0.455479
H     -0.967684   -1.204513   -1.198753
H      1.361356   -1.350930   -0.377451
H      2.771213    1.314416    0.170984
H      0.685140    0.617992    1.574496
