20

C      3.008386    0.732733    0.464313
C      1.980884   -0.171211   -0.134192
O      2.209431   -0.725672   -1.243181
N      0.762495   -0.436176    0.573839
C     -0.296669   -1.286910    0.032451
C     -1.053966   -0.586265   -1.106742
C     -1.680126    0.758426   -0.701942
C     -2.835977    0.590571    0.240798
O     -2.645898    0.343594    1.420882
H      2.519473    1.649776    0.854655
H      3.760408    1.026538   -0.298533
H      3.521176    0.208704    1.297368
H      0.640890   -0.042191    1.534187
H      0.143897   -2.235621   -0.343228
H     -1.004821   -1.559169    0.843038
H     -0.353002   -0.408835   -1.950246
H     -1.849631   -1.265518   -1.483748
H     -0.919602    1.433254   -0.253817
H     -2.056473    1.254122   -1.622502
H     -3.850874    0.719849   -0.120914
