20

C     -0.245542    0.316690   -1.138359
C      0.685164    0.900006   -0.049726
C      1.810605   -0.041491    0.294843
O      2.648888   -0.382779   -0.582909
O      1.922291   -0.539156    1.589382
N      1.217237    2.189156   -0.497536
C     -1.052416   -0.926909   -0.710412
C     -1.947555   -0.631202    0.465815
O     -1.598373   -0.962267    1.630181
O     -3.149751    0.045546    0.282107
O     -0.187787   -1.996371   -0.424733
H     -0.965482    1.106988   -1.447025
H      0.352730    0.062097   -2.041049
H      0.086742    1.087010    0.868093
H      2.669725   -1.175863    1.838418
H      1.838751    2.043595   -1.326970
H      1.804445    2.595527    0.267422
H     -1.699995   -1.209302   -1.572805
H     -3.449408    0.340431   -0.639503
H     -0.740269   -2.821706   -0.426194
