46

C     -0.290467   -0.295323   -3.568838
N      0.675297   -0.313265   -2.456538
C      0.686379    0.618562   -1.515090
C      1.658164    0.487977   -0.373302
C      2.032337    1.571067    0.446847
C      2.900414    1.386589    1.528171
C      3.421334    0.113086    1.809333
C      3.083496   -0.964544    0.972147
C      2.230919   -0.773874   -0.124026
C      1.889064   -1.923429   -1.024429
C      1.679530   -1.396569   -2.443423
O      4.270226   -0.042982    2.917061
C      4.828449   -1.282290    3.338450
O      3.234260    2.488621    2.315907
C     -0.391869    1.700244   -1.465487
C     -1.649580    1.195310   -0.801361
C     -2.865478    1.176035   -1.502877
C     -4.038498    0.724954   -0.887413
C     -4.013284    0.293913    0.451652
C     -2.796971    0.329173    1.159915
C     -1.629879    0.782092    0.540119
O     -5.204935   -0.155313    1.042735
C     -5.314689   -0.618413    2.384825
O     -5.222656    0.714242   -1.624720
H     -0.180840    0.638074   -4.159840
H     -1.324608   -0.391500   -3.182621
H     -0.124945   -1.137122   -4.273585
H      1.684295    2.573616    0.257062
H      3.485073   -1.951509    1.159432
H      2.707998   -2.676263   -1.034422
H      0.958363   -2.411031   -0.660079
H      2.643007   -1.003973   -2.837625
H      1.372295   -2.248491   -3.088438
H      5.491312   -1.691473    2.547625
H      5.431136   -1.114577    4.254876
H      4.019432   -2.005822    3.572975
H      3.858590    2.416474    3.110315
H     -0.607581    2.080016   -2.484862
H     -0.061898    2.603537   -0.924296
H     -2.906788    1.509393   -2.533038
H     -2.742545    0.012717    2.192211
H     -0.711144    0.812146    1.111682
H     -6.366493   -0.909089    2.584088
H     -4.665905   -1.506714    2.535842
H     -5.029876    0.188554    3.092076
H     -6.100442    0.397173   -1.231598
