15

C     -1.851749   -0.416849    0.094252
C     -0.510751    0.234015   -0.254774
C      0.601968   -0.310967    0.651300
C      1.937093    0.249036    0.258638
O      2.411098    1.237675    0.877859
O      2.643520   -0.291015   -0.812029
O     -0.606767    1.626097   -0.094842
H     -1.791146   -1.518458   -0.036190
H     -2.131907   -0.189641    1.145224
H     -2.646060   -0.029054   -0.578221
H     -0.262445   -0.013702   -1.313987
H      0.386870   -0.054427    1.712240
H      0.644501   -1.419004    0.571666
H      2.277606   -1.075621   -1.338065
H     -1.101831    1.971914   -0.883070
