18

C     -0.776435   -1.625689   -0.284994
C      0.730638   -1.417039   -0.307983
C      1.046418   -0.220763    0.170974
N     -0.139688    0.431462    0.534856
C     -1.316555   -0.378651    0.465970
C     -2.068973    0.617440   -0.256408
C     -0.904519    1.540336   -0.076895
O     -0.653832    2.734338   -0.385288
C      2.380939    0.387944    0.212469
O      3.389053   -0.257006   -0.182814
O      2.532037    1.684584    0.692848
H     -1.022142   -2.553125    0.274051
H     -1.166204   -1.695614   -1.322908
H      1.443229   -2.122923   -0.714784
H     -1.707035   -0.602092    1.484983
H     -2.965999    0.972959    0.294470
H     -2.245838    0.381610   -1.327771
H      3.444905    2.122231    0.729224
