20

C     -1.443506   -0.511708    2.053125
C     -1.366557   -0.605146    0.528718
C     -1.047190    0.746625   -0.140712
C      0.403348    1.221991    0.101687
C      1.428542    0.313262   -0.527672
O      1.612838    0.367085   -1.773229
C      2.211043   -0.645919    0.269591
O      2.062423   -0.715393    1.518905
O      3.125084   -1.483579   -0.362438
O     -1.294209    0.637812   -1.519591
H     -2.179009    0.262529    2.358368
H     -1.770694   -1.489305    2.465663
H     -0.452923   -0.269665    2.487774
H     -0.618920   -1.373782    0.238951
H     -2.356010   -0.955569    0.161580
H     -1.738147    1.510533    0.287746
H      0.520649    2.235492   -0.339772
H      0.594522    1.342311    1.188042
H      3.672701   -2.150258    0.168552
H     -1.363985    1.562685   -1.874524
