33

C     -3.812895   -0.330724    1.836670
C     -2.406386   -0.351709    1.554435
N     -2.562062    0.356544    0.299370
C     -4.020990    0.383477    0.541702
O     -5.020592    0.821160   -0.085101
C     -1.709599    0.776557   -0.810825
C     -0.365568    1.367179   -0.303963
C      0.666218    0.304591    0.145558
C      1.874383    0.951612    0.835739
N      2.840427   -0.066469    1.245977
C      3.689506   -0.686300    0.475910
N      4.550824   -1.669215    1.049959
N      3.790138   -0.402196   -0.926220
O      0.192965    2.210665   -1.281869
C     -1.529415   -0.356979   -1.783325
O     -1.480624   -0.122101   -3.020493
O     -1.380006   -1.661826   -1.321612
H     -4.080276    0.306097    2.707579
H     -4.280655   -1.339047    1.833259
H     -1.807284    0.242541    2.279516
H     -2.015114   -1.380219    1.391256
H     -2.250159    1.592953   -1.339647
H     -0.603419    2.005691    0.575556
H      1.008184   -0.281989   -0.732869
H      0.199928   -0.405470    0.857515
H      1.521800    1.477953    1.748187
H      2.361085    1.710209    0.186087
H      4.498000   -1.891281    2.069137
H      5.243546   -2.178980    0.458191
H      4.473438   -0.929316   -1.513562
H      3.216013    0.329278   -1.397788
H      0.441386    1.646705   -2.060109
H     -1.242792   -2.429391   -1.968046
