22

C      0.417631    2.199693   -0.839458
C     -0.215208    0.920954   -0.358046
C     -1.510301    0.940900    0.002937
C     -2.176441   -0.255958    0.543017
C     -1.577588   -1.446828    0.506309
C     -0.256571   -1.623267   -0.201149
C      0.629644   -0.331613   -0.140786
C      1.310154   -0.200043    1.207415
O      0.681815   -0.454250    2.270981
O      2.620109    0.266338    1.281551
O      1.609449   -0.401759   -1.152182
O     -0.488159   -2.018046   -1.531542
H      1.512675    2.087456   -0.978938
H     -0.034885    2.498172   -1.808472
H      0.251115    3.007851   -0.095667
H     -2.085375    1.855669   -0.078197
H     -3.162965   -0.163442    0.978654
H     -2.087173   -2.314812    0.905548
H      0.287212   -2.455936    0.296553
H      3.081070    0.381651    2.176152
H      2.152453   -1.219110   -0.993793
H     -0.958662   -1.273620   -1.990888
