47

C     -4.709003   -0.911481    0.723369
C     -4.309528    0.153991    1.714672
C     -3.678497    1.287272    1.336216
C     -3.304699    1.633493   -0.086369
C     -2.103597    0.840785   -0.568365
C     -2.242355   -0.089610   -1.618889
C     -1.131748   -0.843105   -2.023872
C      0.118803   -0.645269   -1.443521
C      0.295825    0.320014   -0.421956
C     -0.845042    1.032620    0.049229
O     -0.787930    1.915084    1.134392
C      1.620671    0.535534    0.036756
O      1.893653    1.461945    0.845672
C      2.667280   -0.263240   -0.454770
C      2.374996   -1.231191   -1.418486
O      1.141384   -1.373031   -1.879545
C      4.055122   -0.110686    0.039608
C      5.115517    0.261454   -0.819656
C      6.419265    0.344316   -0.315726
C      6.679737    0.081808    1.032215
C      5.629077   -0.269476    1.887356
C      4.325875   -0.365415    1.394444
O      7.984425    0.175285    1.511464
O      4.904527    0.573170   -2.164323
O     -3.496912   -0.249792   -2.232639
C     -3.781857   -1.180098   -3.272144
C     -4.626229   -0.036970    3.175658
H     -5.299052   -1.716209    1.208750
H     -5.336891   -0.474583   -0.080655
H     -3.803291   -1.377660    0.286186
H     -3.429931    2.023347    2.097270
H     -4.190701    1.520794   -0.744384
H     -3.041610    2.712491   -0.126370
H     -1.221570   -1.579011   -2.811622
H     -0.097677    1.871448    1.869387
H      3.158576   -1.870070   -1.805985
H      7.232363    0.625398   -0.973495
H      5.821865   -0.473962    2.932824
H      3.526971   -0.653033    2.067351
H      8.206038   -0.007859    2.483192
H      3.984040    0.608787   -2.583084
H     -3.593385   -2.215969   -2.919132
H     -3.159631   -0.958464   -4.164744
H     -4.850905   -1.090948   -3.553917
H     -5.133774   -1.005799    3.364186
H     -5.293110    0.779566    3.525064
H     -3.687083   -0.017328    3.768391
