17

C     -1.709079   -0.861838    0.383318
C     -1.027014    0.283477   -0.371276
C      0.465340    0.174679   -0.222680
C      1.191902    0.766441    0.729946
C      2.579780    0.386727    0.547138
O      3.570219    0.738184    1.239950
C      2.571605   -0.487965   -0.602315
O      3.569123   -1.056610   -1.117592
O      1.267274   -0.609946   -1.060412
O      0.698492    1.595742    1.730104
O     -1.373759    0.217087   -1.729472
O     -3.102606   -0.769577    0.258700
H     -1.380439   -1.835985   -0.039254
H     -1.419114   -0.842175    1.459386
H     -1.379043    1.250770    0.058007
H     -1.127985    1.091965   -2.130253
H     -3.394698   -0.040974    0.866706
