33

C      2.453828    1.141981    0.917402
C      3.805636    1.494094    0.951304
C      4.730610    0.820931    0.142940
C      4.296310   -0.203844   -0.706888
C      2.939639   -0.558152   -0.739122
C      2.010282    0.101072    0.085981
C      0.569683   -0.239461    0.051498
C      0.115082   -1.569928    0.004143
C     -1.260970   -1.812063   -0.044584
C     -2.167518   -0.738345   -0.025299
C     -1.628398    0.565226    0.049393
O     -0.313280    0.754822    0.084350
C     -2.473449    1.673584    0.086014
C     -3.860019    1.519114    0.048698
C     -4.416372    0.221064   -0.029384
C     -3.575662   -0.904878   -0.067529
O     -4.186205   -2.161257   -0.148739
O     -5.796604    0.004441   -0.072032
O     -4.641968    2.675653    0.090634
O      1.013127   -2.636985    0.035339
O      5.216839   -0.862270   -1.520395
O      6.080135    1.167588    0.175055
H      1.754551    1.674519    1.550609
H      4.133252    2.291714    1.605900
H      2.612692   -1.327972   -1.426306
H     -1.589246   -2.838409   -0.081306
H     -2.047989    2.668236    0.144290
H     -3.689616   -3.038573   -0.197863
H     -6.487999    0.739770   -0.051925
H     -5.651310    2.679262    0.070699
H      0.697594   -3.599567    0.010532
H      4.933833   -1.607070   -2.146555
H      6.423512    1.905701    0.778534
