27

C     -1.538691    1.314941    1.761137
C     -0.891378    0.849391    0.447211
C     -1.847595    1.109082   -0.729588
C     -0.402796   -0.631698    0.548403
C      0.467388   -1.086123   -0.659588
C      1.668371   -0.199794   -0.857863
O      1.831777    0.396733   -1.957467
O      2.594396   -0.045734    0.178629
C      3.737520    0.792633    0.065842
O      0.890069   -2.418624   -0.501341
C     -1.551960   -1.589574    0.760642
O     -1.850446   -1.963477    1.926750
O     -2.299453   -2.046882   -0.321656
H     -2.486681    0.768905    1.953029
H     -0.846561    1.146760    2.613546
H     -1.762956    2.402063    1.712467
H     -0.001980    1.499303    0.295997
H     -2.780005    0.515992   -0.627694
H     -1.362215    0.868716   -1.696785
H     -2.124568    2.184565   -0.760251
H      0.248868   -0.695949    1.449944
H     -0.149536   -1.051871   -1.582544
H      4.314611    0.751184    1.012237
H      4.384691    0.443313   -0.766369
H      3.422260    1.841610   -0.117990
H      1.413756   -2.473842    0.340977
H     -3.076886   -2.681623   -0.185217
