16

C     -0.549809    1.243436    0.366835
C      0.839341    1.095041    0.317677
C      1.414292   -0.135676   -0.045535
C      0.568990   -1.213495   -0.358137
C     -0.820299   -1.065167   -0.308991
C     -1.394171    0.164382    0.053870
C     -2.864999    0.316922    0.104578
O     -3.384250    1.417876    0.429512
O     -3.695443   -0.753897   -0.206031
N      2.844228   -0.292435   -0.097314
O      3.600172    0.662037    0.179482
O      3.403090   -1.498629   -0.453266
H     -0.961964    2.203957    0.650152
H      1.463808    1.944208    0.564133
H      0.981084   -2.173385   -0.641275
H     -1.444070   -1.915175   -0.555691
