31

C     -2.013062    2.329489    0.858377
C     -1.462238    0.912868    0.686219
C     -2.607282   -0.099534    0.450866
C     -2.016817   -1.491545    0.206871
C     -0.941476   -1.443386   -0.887320
C      0.081236   -0.336433   -0.576948
O     -0.563150    0.920811   -0.412794
O      0.840518   -0.686089    0.570739
C      2.018678    0.093977    0.661233
C      3.205936   -0.682757    0.089848
C      4.471651    0.105965    0.236495
O      5.226677   -0.094856    1.223933
O      4.801811    1.091622   -0.688954
O     -1.532380   -1.191735   -2.136848
O     -3.448827   -0.158084    1.574829
H     -1.172381    3.044913    0.982228
H     -2.655250    2.393554    1.762055
H     -2.604440    2.628422   -0.033477
H     -0.925835    0.659243    1.629576
H     -3.185984    0.197010   -0.457470
H     -2.825084   -2.196310   -0.086688
H     -1.563356   -1.874162    1.148392
H     -0.406457   -2.421500   -0.917885
H      0.745300   -0.268468   -1.470153
H      1.931320    1.091224    0.166978
H      2.209630    0.292808    1.737690
H      3.034866   -0.899578   -0.985839
H      3.305528   -1.653481    0.622868
H      4.201907    1.287337   -1.481475
H     -1.963379   -2.038233   -2.425889
H     -4.187658    0.486909    1.421150
