42

C     -6.023304    0.402273   -0.803201
C     -4.810658    0.455862    0.132657
C     -3.936625    1.640821   -0.242837
C     -2.603003    1.558330   -0.254571
C     -1.928624    0.272621   -0.021901
C     -2.708330   -0.883303    0.097508
O     -4.101578   -0.788166    0.021582
C     -2.096098   -2.126504    0.272998
C     -0.702654   -2.217115    0.342030
C      0.092076   -1.064143    0.216116
C     -0.531626    0.184820    0.040918
C      1.594292   -1.162357    0.320964
C      2.069913   -0.750010    1.725588
C      3.568987   -0.654011    1.759138
O      4.188416   -0.911094    2.826511
C      4.292213   -0.185694    0.559410
C      3.568737   -0.015521   -0.633771
O      2.210309   -0.349544   -0.683383
C      4.202903    0.492746   -1.771915
C      5.566041    0.806175   -1.736915
C      6.294947    0.615655   -0.554274
C      5.661496    0.123542    0.591320
O      6.186358    1.303811   -2.880603
C     -5.278013    0.623266    1.584022
H     -6.626165    1.333109   -0.725268
H     -6.671318   -0.462833   -0.545285
H     -5.687476    0.283005   -1.855829
H     -4.399682    2.607155   -0.405330
H     -2.017120    2.447353   -0.454279
H     -2.699861   -3.020357    0.363928
H     -0.244246   -3.186562    0.492921
H      0.068293    1.083032   -0.046848
H      1.912700   -2.214510    0.143440
H      1.651137    0.243352    1.996667
H      1.720652   -1.497274    2.471444
H      3.639447    0.632621   -2.685884
H      7.350001    0.855780   -0.519993
H      6.235997   -0.001930    1.500505
H      7.171795    1.539895   -2.888224
H     -5.857312    1.564171    1.706762
H     -5.920904   -0.232318    1.882980
H     -4.402111    0.653854    2.267491
