33

C     -1.321048    1.212599   -0.742229
C     -2.639555    1.547734   -1.104203
C     -3.667044    0.734734   -0.636769
C     -3.420392   -0.357025    0.140750
C     -2.132046   -0.723327    0.520283
C     -1.058878    0.086072    0.086588
N      0.283856   -0.282815    0.443005
C      1.340389    0.659413    0.686244
O      1.090087    1.888814    0.811141
C      2.757462    0.182968    0.796325
C      3.355589   -0.038631   -0.598849
C      4.787100   -0.586939   -0.536613
C      5.748010    0.428123    0.001813
O      6.169201    1.354940   -0.740854
O      6.150779    0.365197    1.332094
N     -4.577392   -0.961045    0.437221
C     -5.503394   -0.194055   -0.186851
N     -4.987024    0.864644   -0.864264
N     -6.900651   -0.473250   -0.140178
H     -0.509414    1.813152   -1.129843
H     -2.845231    2.402922   -1.734920
H     -1.964168   -1.597868    1.136182
H      0.486116   -1.294669    0.609886
H      3.356630    0.936811    1.351724
H      2.780801   -0.766349    1.373959
H      3.343786    0.915167   -1.171965
H      2.726935   -0.772595   -1.149758
H      5.107747   -0.874634   -1.561218
H      4.816903   -1.503554    0.091554
H      6.789461    1.052231    1.714416
H     -4.729911   -1.819822    1.011660
H     -7.256720   -1.298137    0.391440
H     -7.577983    0.145952   -0.637769
