37

C      6.403353   -1.694233    0.370293
O      5.163021   -1.561597    1.056977
C      4.060573   -0.842453    0.571254
C      2.903903   -0.795739    1.351872
C      1.775595   -0.085259    0.922409
C      1.791807    0.584494   -0.318593
C      2.957827    0.525708   -1.118261
C      4.081074   -0.174411   -0.664689
O      3.027060    1.129114   -2.376365
C      0.609951    1.361226   -0.756541
O      0.748366    2.573000   -1.076518
C     -0.747242    0.722793   -0.864023
C     -1.773290    1.448087    0.013878
C     -3.101502    0.742167   -0.034315
C     -4.045962    1.073875   -1.019336
C     -5.265904    0.393582   -1.083282
C     -5.548997   -0.631573   -0.170362
C     -4.605081   -0.973802    0.803448
C     -3.384500   -0.294964    0.869521
O     -6.760925   -1.316231   -0.224365
O      0.645844   -0.030476    1.738597
H      6.862872   -0.695180    0.215447
H      6.247030   -2.199174   -0.606345
H      7.092510   -2.311060    0.982612
H      2.886347   -1.307690    2.306041
H      4.961633   -0.202425   -1.292316
H      2.237175    1.579114   -2.820026
H     -1.073878    0.763742   -1.925745
H     -0.690570   -0.348769   -0.571752
H     -1.412518    1.493762    1.064381
H     -1.892575    2.497016   -0.336761
H     -3.836723    1.857223   -1.737360
H     -5.988153    0.661091   -1.844033
H     -4.816199   -1.768916    1.507190
H     -2.659470   -0.578207    1.622739
H     -7.464753   -1.092692   -0.918298
H      0.612304   -0.501143    2.635289
