18

C      0.962163    0.003909    0.643733
C     -0.234610   -0.930541    0.924722
C     -1.313764   -0.224786    1.706612
O     -2.215298    0.428433    1.116797
O     -1.286934   -0.250166    3.095311
N     -0.768087   -1.522956   -0.309939
C      0.609066    1.175550   -0.229925
O      0.171819    2.235507    0.293451
N      0.747485    1.087236   -1.650658
O      0.402643    2.130484   -2.442597
H      1.776588   -0.579122    0.161882
H      1.368213    0.379715    1.608607
H      0.145461   -1.759368    1.563913
H     -0.005595   -2.025304   -0.820114
H     -1.513905   -2.216831   -0.071636
H     -1.175124   -0.791409   -0.936452
H      1.092660    0.205162   -2.091112
H      1.237221    2.654488   -2.549869
