47

C      4.455206    2.128701    0.964713
C      3.590375    1.406623   -0.010649
O      3.460675    1.857336   -1.181121
O      2.980475    0.206442    0.370758
C      2.050540   -0.513771   -0.446022
C      2.223385   -2.016577   -0.226367
C      0.830341   -2.591230   -0.031362
C     -0.163991   -1.510026   -0.524531
C      0.550964   -0.167351   -0.137587
C      0.142994    1.078284   -1.029085
C     -1.367613    1.440007   -1.238570
C     -2.420051    0.321200   -1.333925
C     -2.582436   -0.509767   -0.067085
C     -1.649265   -1.743107    0.008932
C     -1.783453   -2.416851    1.404169
O     -3.128809   -2.546226    1.784464
C     -1.613549    2.532009   -0.238476
C     -2.782372    3.069499    0.112837
C     -0.310872    3.042085    0.117800
O     -0.087988    4.067202    0.814155
O      0.685035    2.259429   -0.432475
C      0.421964    0.155794    1.384775
O     -0.180219   -1.576114   -1.938249
H      5.512535    1.826259    0.816441
H      4.362053    3.225493    0.818093
H      4.145634    1.878868    2.001168
H      2.285733   -0.336799   -1.520491
H      2.708000   -2.484462   -1.112129
H      2.855808   -2.225966    0.665376
H      0.727866   -2.798344    1.051558
H      0.711055   -3.554449   -0.573934
H      0.584817    0.965585   -2.043640
H     -1.421178    1.952503   -2.227081
H     -3.399290    0.794848   -1.562184
H     -2.221228   -0.325347   -2.212347
H     -3.630269   -0.885346   -0.067416
H     -2.520693    0.130203    0.832269
H     -2.103000   -2.488665   -0.682689
H     -1.329861   -3.432817    1.391626
H     -1.268486   -1.820628    2.180125
H     -3.519097   -3.262047    1.217587
H     -3.715135    2.679472   -0.268917
H     -2.817467    3.911982    0.791501
H     -0.600992    0.436468    1.675567
H      0.753182   -0.695450    2.012628
H      1.060082    1.015924    1.674576
H     -0.481406   -2.480874   -2.215668
