28

C     -2.676347    1.252072    0.313329
C     -1.914829   -0.069976    0.132324
C     -1.705081   -0.396970   -1.360530
C     -0.199996   -0.367840   -1.624483
C      0.409459    0.353900   -0.425482
C     -0.507451    0.001932    0.759777
C     -0.172707   -1.322580    1.400048
O      0.098705   -1.383736    2.588606
C      1.948095    0.166709   -0.258074
C      2.487746    0.979134    0.929602
C      2.402367   -1.275971   -0.209384
O      2.735256   -1.806646    0.839547
H     -2.120259    2.096696   -0.147075
H     -2.820240    1.463000    1.394409
H     -3.678396    1.180959   -0.160939
H     -2.528739   -0.870127    0.606676
H     -2.216026    0.336992   -2.022800
H     -2.111179   -1.405748   -1.594000
H      0.034150    0.162859   -2.573160
H      0.171465   -1.412002   -1.694626
H      0.259910    1.442586   -0.617879
H     -0.446458    0.801594    1.533300
H     -0.183590   -2.232928    0.808489
H      2.418829    0.600641   -1.168081
H      3.596921    0.920304    0.959056
H      2.085945    0.595326    1.890846
H      2.201932    2.047505    0.825193
H      2.430519   -1.857683   -1.124688
