38

C      6.197480   -0.371720    0.461502
O      5.345636   -0.390853   -0.678670
C      3.940960   -0.283730   -0.683833
C      3.151546   -0.236310    0.497458
C      1.744933   -0.051186    0.395279
C      1.141955   -0.076158   -0.875955
C      1.920413   -0.150105   -2.026588
C      3.307658   -0.234965   -1.939322
O      4.046481   -0.282750   -3.122351
O     -0.249288   -0.020258   -1.000852
C     -1.108503   -0.312513    0.099710
C     -0.626887    0.436710    1.358526
C      0.862984    0.270696    1.555811
O      1.349326    0.564281    2.680030
O     -1.333690    0.007556    2.496352
C     -2.531348    0.060677   -0.243981
C     -3.590843   -0.786449    0.116954
C     -4.918017   -0.440491   -0.167268
C     -5.194182    0.784420   -0.820203
C     -4.136165    1.632687   -1.165414
C     -2.816835    1.279959   -0.876962
O     -6.490228    1.194478   -1.139383
O     -5.920813   -1.333586    0.215709
O      3.769270   -0.412516    1.736973
H      6.036684    0.557582    1.047671
H      7.252598   -0.388195    0.119858
H      6.024892   -1.273107    1.085876
H      1.442462   -0.141886   -2.998410
H      5.057179   -0.347199   -3.130317
H     -1.045347   -1.408347    0.288402
H     -0.816540    1.523864    1.223835
H     -1.126008   -0.954270    2.633107
H     -3.387597   -1.721619    0.624817
H     -4.339257    2.574729   -1.659109
H     -2.017448    1.959413   -1.145808
H     -7.319120    0.654328   -0.937439
H     -6.906235   -1.175951    0.061808
H      3.281897   -0.707219    2.571190
