26

C     -2.885477   -0.532335    0.335096
C     -1.847145    0.190599   -0.535760
C     -1.910467    1.707839   -0.291259
C     -0.419279   -0.405025   -0.356399
C      0.178731   -0.179170    1.052692
C      1.574590   -0.807206    1.153143
C      2.459677   -0.340928    0.022776
C      3.787545   -0.390427    0.147986
C      1.852629    0.098832   -1.252726
C      0.526426    0.112381   -1.420813
H     -2.829565   -1.629978    0.174487
H     -2.728876   -0.315145    1.412303
H     -3.908376   -0.197319    0.059653
H     -2.150496    0.015313   -1.592738
H     -1.142658    2.236819   -0.893597
H     -2.906835    2.095620   -0.593010
H     -1.758282    1.948198    0.781801
H     -0.493733   -1.504345   -0.515129
H     -0.468711   -0.639157    1.828113
H      0.265171    0.907589    1.268225
H      1.487928   -1.914590    1.109418
H      2.020089   -0.531481    2.134379
H      4.245880   -0.739631    1.064979
H      4.436860   -0.084617   -0.663222
H      2.486152    0.443989   -2.061544
H      0.128221    0.454176   -2.368855
