34

C     -5.188411    0.162994    0.488585
C     -3.701075   -0.073652    0.388157
C     -2.887624    0.785691   -0.388308
C     -1.498100    0.521806   -0.507752
C     -0.931076   -0.539197    0.223685
C     -1.730112   -1.343045    1.032414
C     -3.106068   -1.132030    1.112249
O     -3.852280   -1.986061    1.928452
O      0.445460   -0.798399    0.158240
C      1.296118   -0.215335   -0.833427
C      0.893874    1.241761   -1.100119
C     -0.578541    1.298014   -1.376362
O     -0.996425    1.943122   -2.374222
C      2.737029   -0.299443   -0.393119
C      3.101744    0.021554    0.927227
C      4.442375   -0.028657    1.321166
C      5.429999   -0.388783    0.400810
C      5.079271   -0.694989   -0.916596
C      3.739833   -0.646156   -1.315414
O     -3.478881    1.902065   -0.988878
H     -5.451603    0.445723    1.529542
H     -5.735814   -0.760941    0.206702
H     -5.542810    0.968161   -0.186508
H     -1.278407   -2.151744    1.593638
H     -4.850667   -1.894670    2.064088
H      1.159421   -0.792401   -1.775920
H      1.466920    1.638418   -1.967066
H      1.111367    1.872257   -0.210762
H      2.349098    0.312767    1.649448
H      4.716000    0.215387    2.339522
H      6.467421   -0.425867    0.707140
H      5.846099   -0.967094   -1.630345
H      3.486001   -0.877399   -2.342487
H     -2.960135    2.686143   -1.357309
