39

C      6.188793   -1.146641    0.438338
O      5.335664   -0.155857   -0.123740
C      3.929103   -0.144867   -0.077218
C      3.276809    0.927829   -0.704163
C      1.878789    1.007716   -0.706065
C      1.107054    0.011267   -0.096255
C      1.753889   -1.051400    0.552567
C      3.153613   -1.142944    0.563198
O      3.754048   -2.219474    1.213434
C     -0.369037    0.130834   -0.092891
C     -1.206446   -0.967711   -0.366670
C     -2.606944   -0.770821   -0.316370
O     -3.379281   -1.713281   -0.625975
C     -3.128573    0.499501    0.030787
C     -4.519735    0.793240    0.162509
C     -4.930899    2.116175    0.366459
C     -4.000779    3.143653    0.515286
C     -2.636489    2.856850    0.454601
C     -2.197808    1.552569    0.212909
O     -0.893561    1.324397    0.153213
O     -4.443974    4.446253    0.733994
O     -5.526976   -0.175684    0.132528
O     -0.602771   -2.194142   -0.712153
C     -1.267649   -3.427356   -0.964882
O      4.032693    1.919298   -1.328534
H      5.985059   -2.135898   -0.022696
H      7.242836   -0.875001    0.225048
H      6.057211   -1.187068    1.539990
H      1.394029    1.843564   -1.196462
H      1.172859   -1.802466    1.073176
H      3.208152   -2.938087    1.674529
H     -5.987483    2.341958    0.443721
H     -1.911964    3.651734    0.583374
H     -3.793806    5.214934    0.849565
H     -5.380589   -1.158633    0.307947
H     -1.903735   -3.342882   -1.870768
H     -0.506732   -4.213110   -1.148838
H     -1.871597   -3.726812   -0.082523
H      3.596225    2.708364   -1.790970
