49

C     -5.227822    1.848473    2.097011
C     -4.832230    0.820460    1.066893
C     -5.661309   -0.291039    0.881436
C     -5.350587   -1.277123   -0.053057
C     -4.181434   -1.159866   -0.839952
C     -3.324909   -0.048810   -0.641838
C     -3.666735    0.961220    0.274982
C     -2.882281    2.215270    0.301408
O     -3.491496    3.317628    0.287837
O     -1.489799    2.240659    0.401813
C     -0.585290    1.212138    0.103807
C      0.706941    1.273515    0.675324
C      1.675072    0.291204    0.343265
C      1.364587   -0.707000   -0.599941
C      0.088845   -0.732844   -1.181624
C     -0.892374    0.187486   -0.812252
O     -2.153383    0.052256   -1.394817
O      2.337515   -1.670441   -0.920302
C      2.157065   -2.728156   -1.856302
C      3.013863    0.291004    0.980506
O      3.090513    0.296259    2.238379
C      4.232873    0.316296    0.134010
C      5.498070    0.114335    0.555356
C      5.840909   -0.197907    1.989863
C      6.604384    0.180467   -0.463736
C      1.041791    2.379381    1.652579
C     -3.874915   -2.171872   -1.881630
O     -2.697895   -2.363606   -2.284945
O     -6.218131   -2.369307   -0.147404
H     -4.333508    2.220264    2.640342
H     -5.915939    1.415513    2.854481
H     -5.741822    2.697471    1.599600
H     -6.561540   -0.400493    1.475194
H     -0.167563   -1.493440   -1.905454
H      3.089979   -3.325722   -1.910932
H      1.329189   -3.391560   -1.528204
H      1.941255   -2.313806   -2.863687
H      4.074445    0.506155   -0.922336
H      6.924198   -0.400247    2.116514
H      5.583502    0.665374    2.638246
H      5.290792   -1.102678    2.324165
H      7.600494    0.008359   -0.005823
H      6.442599   -0.593041   -1.244098
H      6.614210    1.182416   -0.943054
H      0.373980    3.258644    1.540719
H      2.075849    2.749273    1.486063
H      0.951179    1.995785    2.690658
H     -4.661574   -2.765193   -2.323369
H     -6.031563   -3.193153   -0.702248
