36

C     -0.903711   -3.059835    0.233990
C     -1.204368   -1.559396    0.182048
C      0.023995   -0.651286    0.173463
C     -0.190175    0.625945   -0.198901
C     -1.608520    1.091920   -0.423533
C     -2.505165   -0.015819   -1.050963
O     -1.950821   -1.324974   -0.998538
C     -3.929729   -0.027517   -0.464410
C     -4.669924    1.240693   -0.779741
O     -5.173242    1.404133   -1.922323
O     -4.781953    2.254701    0.167402
C      0.921443    1.604935   -0.249551
O      0.682150    2.813656   -0.520244
C      2.308599    1.166683    0.010845
C      2.550821   -0.159160    0.424934
C      1.392084   -1.075078    0.605864
O      1.565704   -2.189688    1.164871
C      3.881567   -0.575977    0.668350
C      4.938532    0.329899    0.504832
C      4.689151    1.640316    0.101533
C      3.382805    2.059499   -0.145323
O      4.159314   -1.884360    1.064857
H     -0.564840   -3.359766    1.247403
H     -1.832124   -3.632817    0.023551
H     -0.145131   -3.336901   -0.529133
H     -1.818305   -1.322695    1.081193
H     -1.629065    1.985718   -1.084236
H     -2.008911    1.404390    0.565023
H     -2.599523    0.224915   -2.133434
H     -4.494091   -0.882613   -0.896030
H     -3.893391   -0.179181    0.635405
H     -4.383025    2.157039    1.093237
H      5.958168    0.016495    0.689969
H      5.511559    2.333134   -0.022287
H      3.213497    3.081357   -0.461064
H      5.106623   -2.198364    1.240941
