35

C      5.412484    1.812548    0.233884
C      3.948469    1.628454    0.446056
O      3.310171    2.472377    1.131629
O      3.329541    0.464131   -0.026790
C      1.943485    0.262356   -0.121486
C      1.449924   -1.048011   -0.026754
C      0.063716   -1.279326   -0.127287
C     -0.827107   -0.212244   -0.322797
C     -0.319444    1.089639   -0.448659
C      1.052246    1.325871   -0.350015
C     -2.312690   -0.471384   -0.448557
C     -2.733974   -0.393130   -1.892320
C     -3.976935   -0.708367   -2.266377
O     -3.053257    0.485679    0.310858
C     -3.065018    0.512118    1.709904
O     -2.405924   -0.330867    2.377282
C     -3.826026    1.580988    2.416900
O      2.367473   -2.092086    0.171631
C      2.013837   -3.466362    0.289371
H      5.967022    1.395662    1.100042
H      5.729442    1.285353   -0.690225
H      5.651126    2.892135    0.130057
H     -0.328305   -2.284800   -0.054477
H     -0.987397    1.922141   -0.632548
H      1.415188    2.335477   -0.484633
H     -2.554871   -1.492062   -0.074102
H     -2.025643   -0.073225   -2.652570
H     -4.714437   -1.030838   -1.537380
H     -4.262746   -0.644232   -3.311242
H     -3.141768    2.418731    2.664891
H     -4.642813    1.957903    1.766359
H     -4.269135    1.179088    3.352435
H      2.934925   -4.065864    0.439395
H      1.511922   -3.812465   -0.638805
H      1.346515   -3.615389    1.164415
