36

C      4.178213    0.315865    0.604472
C      3.793047   -0.422666   -0.680761
C      2.306658   -0.263758   -1.095789
C      1.988896    1.196164   -1.470341
C      1.313619   -0.809039   -0.030569
C     -0.108111   -0.787732   -0.549583
O     -0.467879   -1.626674   -1.420965
N     -1.028334    0.214301   -0.089621
C     -2.438954    0.229527   -0.494028
C     -3.266858   -0.738718    0.389133
C     -3.279399   -0.359632    1.878874
O     -4.577779   -0.872588   -0.102501
C     -2.977495    1.638447   -0.477229
O     -3.743644    2.026905   -1.399644
O     -2.660890    2.505837    0.564876
N      1.684895   -2.166978    0.379466
H      3.992675    1.405314    0.508095
H      3.618878   -0.083700    1.475098
H      5.261401    0.168659    0.798490
H      4.441283   -0.054366   -1.505850
H      4.031260   -1.500946   -0.554994
H      2.177317   -0.868455   -2.021650
H      2.761730    1.598735   -2.159146
H      1.011353    1.255713   -1.994592
H      1.939795    1.839188   -0.566397
H      1.366605   -0.158061    0.868776
H     -0.699018    0.890998    0.635743
H     -2.508851   -0.131294   -1.544778
H     -2.790951   -1.740813    0.316071
H     -3.774032    0.620761    2.037439
H     -2.244364   -0.314426    2.277255
H     -3.838703   -1.127683    2.453432
H     -5.050522   -0.013994    0.052463
H     -3.034187    3.447362    0.589504
H      1.614306   -2.814469   -0.439467
H      1.008043   -2.497788    1.105874
