25

C      3.239950    0.708421   -0.024304
C      2.127391    0.273465    0.883443
O      2.042468    0.772610    1.995443
C      1.139447   -0.788535    0.466251
C     -0.323170   -0.294715    0.580183
C     -1.343422   -1.389011    0.286698
C     -2.584212   -0.635003   -0.162766
C     -2.151915    0.825540   -0.290495
N     -0.680696    0.866322   -0.262664
C     -0.157629    0.780884   -1.642534
H      3.128541    1.788438   -0.255439
H      4.215509    0.544064    0.479363
H      3.235453    0.136914   -0.975738
H      1.271571   -1.657370    1.146950
H      1.354136   -1.158901   -0.558440
H     -0.476384    0.008768    1.642540
H     -0.988561   -2.052577   -0.532841
H     -1.546532   -2.002450    1.191816
H     -2.935573   -1.021853   -1.144421
H     -3.402443   -0.735952    0.583496
H     -2.536415    1.399476    0.581361
H     -2.585697    1.293344   -1.203403
H     -0.411090   -0.190423   -2.121485
H      0.940101    0.923358   -1.648962
H     -0.570830    1.605186   -2.263049
