29

C      3.359386   -0.141226   -0.265824
C      1.832990   -0.002257   -0.232404
C      1.218232   -0.886504    0.888246
C     -0.043727   -0.289335    1.543086
C     -0.922585    0.516225    0.559513
C     -0.070518    1.625582   -0.026916
O     -0.590062    2.679931   -0.360919
C      1.427397    1.479568   -0.117784
C     -1.595428   -0.360332   -0.546526
C     -2.465798   -1.476443    0.057906
C     -2.461991    0.490815   -1.491821
H      3.641980   -1.208522   -0.389804
H      3.808267    0.242976    0.675338
H      3.778091    0.430551   -1.121459
H      1.456716   -0.373081   -1.211516
H      0.964829   -1.880159    0.458165
H      1.961575   -1.069566    1.695573
H      0.281832    0.399368    2.355047
H     -0.624204   -1.086769    2.050320
H     -1.728565    0.989808    1.164580
H      1.885945    1.935822    0.786314
H      1.794727    2.029735   -1.011958
H     -0.813069   -0.847678   -1.165263
H     -3.182998   -1.058935    0.796700
H     -1.834910   -2.245148    0.549066
H     -3.039219   -1.999984   -0.736800
H     -2.990168   -0.155153   -2.225442
H     -1.831816    1.191658   -2.077295
H     -3.216909    1.069052   -0.916983
