19

C      0.779166   -1.400713    0.121096
C      1.897051   -0.579254   -0.032595
C      1.730561    0.800213   -0.182813
C      0.449383    1.365497   -0.160570
C     -0.684175    0.544687    0.003590
C     -0.516584   -0.858187    0.119148
C     -1.666099   -1.783659    0.213507
O     -1.641846   -2.728472    1.045993
O     -2.758300   -1.664408   -0.642911
N     -1.981864    1.149754    0.114280
O      0.300172    2.746340   -0.288583
O      3.169964   -1.145560   -0.040136
H      0.922607   -2.470660    0.216640
H      2.598415    1.436036   -0.305762
H     -2.773170   -0.980772   -1.390261
H     -2.805386    0.620334    0.474405
H     -2.120715    2.167231   -0.073795
H      1.098841    3.359447   -0.403471
H      4.001979   -0.577856   -0.151456
