25

C     -1.940883    0.863779    1.323018
C     -2.776054   -0.001719    0.741673
C     -2.446553   -0.596025   -0.606271
C     -0.920340   -0.797630   -0.772382
C     -0.141141    0.413435   -0.284499
C     -0.624289    1.156667    0.726960
C      1.214834    0.719380   -0.869715
C      2.335028    0.316626    0.094704
C      3.675788    0.591322   -0.515662
O      4.265962    1.676925   -0.273551
O      4.258520   -0.325841   -1.385299
O     -0.482548   -1.955234   -0.103560
O     -3.111645   -1.820848   -0.773892
H     -2.226636    1.350695    2.246496
H     -3.734021   -0.209924    1.202094
H     -2.782387    0.124582   -1.388545
H     -0.721393   -0.941476   -1.856413
H     -0.046088    1.980592    1.127051
H      1.345622    0.167749   -1.826286
H      1.281577    1.805630   -1.100417
H      2.241681    0.882546    1.047223
H      2.257246   -0.767064    0.329995
H      3.795869   -1.197655   -1.613653
H     -0.654028   -1.828627    0.866348
H     -4.064119   -1.607886   -0.957536
