31

C      0.458419    1.773296   -0.653043
C      0.781054    0.633789    0.336794
O     -0.176627   -0.420799    0.193113
C     -1.549479   -0.168311    0.076098
C     -1.996697    1.122614   -0.253152
C     -0.988054    2.163225   -0.537260
O     -1.333516    3.357397   -0.746570
C     -3.372763    1.380932   -0.339674
C     -4.292749    0.352913   -0.118346
C     -3.848913   -0.941720    0.187030
C     -2.470627   -1.203605    0.282877
O     -2.001994   -2.481292    0.589555
O     -4.770836   -1.966049    0.396884
C      2.181732    0.055586    0.222214
C      2.531032   -1.011831    1.070890
C      3.809322   -1.574991    1.021771
C      4.760337   -1.075702    0.130927
C      4.435951   -0.009491   -0.709424
C      3.158743    0.558706   -0.665424
H      0.636758    1.433965   -1.696116
H      1.100912    2.654655   -0.436265
H      0.681040    1.049842    1.364504
H     -3.735423    2.369737   -0.591069
H     -5.352487    0.561459   -0.192656
H     -2.628740   -3.260677    0.749903
H     -5.768991   -1.802820    0.334118
H      1.809353   -1.409582    1.774133
H      4.062941   -2.398097    1.677303
H      5.750120   -1.512174    0.094632
H      5.177062    0.380530   -1.395256
H      2.953120    1.388496   -1.326045
