22

C      0.662173   -1.258967   -0.048015
C     -0.248022   -0.187607   -0.069452
C      0.242782    1.122553   -0.226048
C      1.619443    1.356251   -0.346282
C      2.512816    0.281813   -0.315823
C      2.039036   -1.024906   -0.168400
O      2.943677   -2.084065   -0.143565
O      2.108797    2.651851   -0.496966
C     -1.737358   -0.454026    0.046258
C     -2.338212    0.339328    1.178466
O     -2.967973    1.406959    0.951824
O     -2.162807   -0.078527    2.494533
N     -2.425239   -0.173544   -1.217519
H      0.304786   -2.275434    0.061974
H     -0.441959    1.960917   -0.252593
H      3.576480    0.462330   -0.408820
H      2.633898   -3.043155   -0.038355
H      1.488529    3.452774   -0.523142
H     -1.906687   -1.527127    0.287439
H     -1.640824   -0.919126    2.711832
H     -2.042477   -0.813370   -1.951579
H     -2.220856    0.805078   -1.525766
