34

C      0.840599    0.593479   -0.534573
C     -0.062982   -0.634606   -0.322192
C     -1.567841   -0.271098   -0.262102
C     -1.920581    0.629675    0.957039
C     -3.422904    0.982326    1.037372
C     -3.868083    1.801339   -0.135485
O     -3.620364    3.036276   -0.173737
O     -4.525744    1.190457   -1.198563
O     -1.490360    0.045343    2.162538
N     -2.386273   -1.488776   -0.257465
C      2.270772    0.225535   -0.970761
C      3.107977   -0.438922    0.144400
C      4.580309   -0.366046   -0.185263
O      5.009852   -0.846335   -1.267994
O      5.480514    0.214338    0.704437
N      2.702395   -1.832814    0.339252
H      0.885380    1.199081    0.395863
H      0.400446    1.233053   -1.330690
H      0.228010   -1.154946    0.614559
H      0.091345   -1.342539   -1.166041
H     -1.812271    0.297169   -1.187645
H     -1.372695    1.590302    0.848026
H     -4.038010    0.059051    1.099566
H     -3.609209    1.564164    1.966240
H     -4.819580    1.727889   -2.005337
H     -2.068404   -0.740615    2.343672
H     -2.289443   -1.960255   -1.186277
H     -2.025119   -2.155078    0.463422
H      2.239502   -0.424349   -1.873022
H      2.770771    1.172862   -1.272962
H      2.932031    0.115046    1.092773
H      5.174597    0.603154    1.588211
H      2.933008   -2.389637   -0.516300
H      3.252353   -2.234520    1.133546
