50

C     -4.543742   -0.248855   -0.003350
N     -3.331867    0.339764   -0.578189
C     -2.101545   -0.461019   -0.651312
C     -1.423859   -0.526749    0.734180
C      0.021359   -1.138489    0.755949
C      0.063975   -2.495111   -0.025385
C     -0.805828   -3.578385    0.629582
C     -0.492344   -3.693172    2.092922
O     -0.756976   -4.760969    2.705904
C      0.078267   -2.553891    2.830400
C      0.352160   -1.394987    2.220303
C      1.114564   -0.194573    0.200509
C      2.467412   -0.603051    0.247758
C      3.502930    0.216780   -0.240003
C      3.198958    1.477134   -0.766590
C      1.864935    1.912889   -0.786554
C      0.842473    1.096841   -0.301027
O      4.250685    2.270414   -1.252335
C      4.089145    3.569427   -1.812840
O      4.848214   -0.185546   -0.213960
C      5.309334   -1.436344    0.286810
C     -3.355768    1.718609   -0.992338
O     -2.336288    2.244693   -1.517756
O     -4.519971    2.475372   -0.817681
C     -4.612675    3.841518   -1.202939
H     -5.367076   -0.212616   -0.747540
H     -4.842329    0.317478    0.904051
H     -4.379697   -1.309268    0.284973
H     -2.366557   -1.484247   -0.991324
H     -1.412552   -0.056035   -1.419966
H     -1.412498    0.482962    1.199031
H     -2.089347   -1.129383    1.391117
H     -0.235872   -2.357400   -1.085076
H      1.098254   -2.896678   -0.059739
H     -0.610994   -4.551907    0.129746
H     -1.883107   -3.343714    0.504561
H      0.293917   -2.661318    3.886253
H      0.750771   -0.582633    2.817635
H      2.715596   -1.558160    0.687062
H      1.605040    2.890074   -1.170330
H     -0.151614    1.507432   -0.316626
H      3.651964    4.258589   -1.059771
H      3.437352    3.519674   -2.710575
H      5.082292    3.959197   -2.116260
H      6.411639   -1.487276    0.174492
H      5.057625   -1.532706    1.364112
H      4.854624   -2.269743   -0.289410
H     -5.627569    4.219711   -0.963305
H     -3.863312    4.444680   -0.647813
H     -4.440098    3.940988   -2.295549
