33

C     -2.789783   -1.544265    1.032648
C     -4.174020   -1.371169    0.940270
C     -4.702367   -0.270605    0.259666
C     -3.838906    0.658785   -0.333690
C     -2.454435    0.488830   -0.243547
C     -1.913161   -0.609742    0.453109
C     -0.411029   -0.833762    0.533647
C      0.132642   -1.462553   -0.770790
O      1.559434   -1.550785   -0.733614
C      2.360807   -0.510362   -0.248878
C      3.725092   -0.502356   -0.551515
C      4.540617    0.542683   -0.104129
C      3.988862    1.577996    0.654322
C      2.625092    1.573120    0.983029
C      1.800008    0.516472    0.536950
C      0.363348    0.415208    0.900330
O     -0.185404    1.308119    1.602642
O      2.100647    2.611311    1.752875
O      5.899631    0.563326   -0.409751
O     -0.272702   -0.744092   -1.909382
O     -6.083725   -0.111275    0.176348
H     -2.402615   -2.409642    1.556066
H     -4.837201   -2.095792    1.395458
H     -4.239226    1.511313   -0.867455
H     -1.805525    1.215612   -0.715426
H     -0.203875   -1.559515    1.351499
H     -0.272233   -2.493150   -0.861004
H      4.146796   -1.302492   -1.146813
H      4.624655    2.385383    0.995726
H      2.679501    3.375229    2.081958
H      6.330425   -0.171780   -0.958340
H      0.206178    0.124754   -1.900865
H     -6.497528    0.675195   -0.310608
