22

C     -1.120649   -1.071134    0.983783
C     -0.533049   -0.164271   -0.113148
C     -0.949515    1.320555    0.129456
C      0.298838    2.071399    0.615937
C      1.387271    1.102690    0.390187
O      2.605552    1.366287    0.573702
N      0.927191   -0.166838   -0.030410
C      1.804968   -1.320500   -0.226432
C     -0.996039   -0.636644   -1.503784
H     -0.765610   -0.743950    1.984766
H     -0.812634   -2.127027    0.831780
H     -2.230965   -1.027578    0.969160
H     -1.303915    1.797947   -0.811488
H     -1.770206    1.415317    0.874614
H      0.222482    2.303970    1.699725
H      0.469710    2.999353    0.028895
H      1.221265   -2.228122   -0.481058
H      2.375053   -1.518306    0.705419
H      2.515318   -1.110241   -1.052974
H     -0.503563   -0.035829   -2.298380
H     -2.096952   -0.521698   -1.602235
H     -0.744549   -1.705379   -1.667515
