12

C     -0.300347   -0.691543   -0.193973
C      1.117897   -0.278379    0.214526
O      1.598732    0.738241   -0.623743
N     -1.262804    0.387567    0.030944
H     -0.307477   -0.982589   -1.267778
H     -0.599896   -1.580791    0.403624
H      1.786664   -1.159221    0.114147
H      1.139246    0.036102    1.283762
H      1.338392    1.601297   -0.208208
H     -2.222847    0.039537   -0.193596
H     -1.048149    1.199674   -0.591605
H     -1.239412    0.690104    1.031901
