44

C      0.920703   -1.943581    2.487324
C      0.917148   -0.985523    1.291462
C      2.317252   -0.476590    1.018255
C      2.723953    0.045469   -0.157786
C      1.793308    0.154636   -1.345484
C      4.147448    0.456431   -0.280085
C      4.782910    0.558164   -1.456716
C      6.197119    0.965576   -1.587625
O      6.610652    1.341194   -2.716948
N      7.114710    0.918996   -0.486822
O      8.365791    1.421004   -0.620984
C     -0.022707    0.168270    1.568482
O      0.371405    1.105984    2.316473
C     -1.397799    0.223859    1.006694
C     -2.046356    1.462264    0.876139
C     -3.337413    1.540895    0.347808
C     -4.023376    0.379575   -0.060216
C     -3.372452   -0.862134    0.083367
C     -2.080416   -0.938963    0.610391
N     -5.364982    0.459900   -0.609999
C     -5.867694    1.720385   -1.170658
C     -6.241478   -0.718049   -0.615897
H      1.595716   -2.802736    2.285053
H     -0.101166   -2.340862    2.665717
H      1.265990   -1.425372    3.408321
H      0.584111   -1.565909    0.404944
H      3.035453   -0.546903    1.829309
H      0.745419    0.343635   -1.039821
H      1.836962   -0.781858   -1.939594
H      2.080048    1.011870   -1.989245
H      4.682154    0.668188    0.635899
H      4.251497    0.354117   -2.377121
H      6.855101    0.471635    0.418980
H      8.913122    0.658848   -0.941015
H     -1.549743    2.377536    1.174212
H     -3.796055    2.516785    0.270963
H     -3.853797   -1.782690   -0.215882
H     -1.631732   -1.916371    0.720833
H     -6.065797    2.444574   -0.353051
H     -5.121168    2.144791   -1.875149
H     -6.811330    1.569412   -1.736385
H     -7.288677   -0.448012   -0.868374
H     -6.251793   -1.186227    0.391284
H     -5.882038   -1.452060   -1.367052
