28

C     -2.398202    2.205529   -0.214037
C     -3.549487    1.531523    0.250168
C     -3.530018    0.138327    0.444514
C     -2.346739   -0.542693    0.161739
C     -1.229530    0.111232   -0.292316
C     -1.217230    1.492730   -0.490004
C     -0.247100   -0.846394   -0.458876
C     -0.828257   -2.052290   -0.078118
N     -2.114076   -1.860089    0.294575
C      1.179896   -0.639429   -0.878697
C      2.128652   -0.567719    0.334827
C      3.556357   -0.556165   -0.141261
O      4.309445   -1.538009    0.097568
O      4.043922    0.532347   -0.859161
N      1.862445    0.620052    1.157440
H     -2.423993    3.277953   -0.356824
H     -4.451823    2.090722    0.460500
H     -4.405479   -0.386118    0.805003
H     -0.331750    2.005605   -0.841211
H     -0.333033   -3.014500   -0.065136
H     -2.783198   -2.588505    0.629446
H      1.475612   -1.492693   -1.527983
H      1.265323    0.284168   -1.490869
H      1.974039   -1.477374    0.960157
H      5.001211    0.549922   -1.189826
H      0.915399    0.549196    1.594288
H      2.566012    0.681924    1.929378
H      1.911600    1.490751    0.579317
