14

C     -1.031958   -0.141940    1.038201
C     -0.293550    0.339555   -0.216176
C      0.995632   -0.418641   -0.387780
O      0.981163   -1.596257   -0.837648
N      2.237365    0.169482    0.001299
N     -1.128388    0.193478   -1.411053
H     -1.970683    0.436436    1.171886
H     -0.396613    0.011487    1.936788
H     -1.284508   -1.221099    0.956759
H     -0.058515    1.419280   -0.086373
H      3.128616   -0.363550   -0.107293
H      2.271631    1.131852    0.404733
H     -1.956651    0.825729   -1.317634
H     -1.493541   -0.785811   -1.466972
