28

C      0.090251   -0.405828   -0.448523
C      1.197922   -1.215612    0.242123
C      2.549609   -0.468710    0.245762
C      2.488296    0.767938    1.105759
O      2.433576    0.661313    2.360674
N      2.455354    2.064752    0.508615
N      3.626978   -1.340967    0.719601
C     -1.225299   -1.193401   -0.486487
N     -2.284123   -0.403908   -1.122006
C     -2.948096    0.566438   -0.548418
N     -3.955069    1.262655   -1.289264
N     -2.704542    0.952883    0.812221
H     -0.061286    0.552218    0.090869
H      0.398178   -0.169579   -1.490684
H      1.322878   -2.179338   -0.299111
H      0.893302   -1.449171    1.286551
H      2.790797   -0.168533   -0.798560
H      2.402697    2.918202    1.107777
H      2.470299    2.177885   -0.529172
H      3.752980   -2.120275    0.033088
H      3.351600   -1.774285    1.631700
H     -1.063726   -2.117435   -1.084290
H     -1.536012   -1.522237    0.528510
H     -2.525047   -0.659444   -2.106939
H     -4.164651    1.012983   -2.281452
H     -4.497252    2.036778   -0.845791
H     -2.013780    0.472861    1.427700
H     -3.245835    1.741815    1.229747
