29

C     -2.788151   -1.465803    0.411503
C     -4.170770   -1.356766    0.586945
C     -4.806745   -0.124614    0.415509
C     -4.053437    1.001535    0.061997
C     -2.669960    0.897175   -0.113658
C     -2.018579   -0.339589    0.072929
C     -0.555852   -0.509835   -0.112064
C      0.328182    0.496704   -0.022647
C      1.790654    0.325262   -0.208111
C      2.558039    1.447301   -0.564002
C      3.941101    1.339607   -0.741890
C      4.573925    0.105163   -0.553487
C      3.829075   -1.016629   -0.180514
C      2.442221   -0.908371   -0.003979
O      4.476662   -2.234301    0.017201
O      4.676625    2.465514   -1.105430
O     -6.185080   -0.030554    0.594073
H     -2.316378   -2.431237    0.549750
H     -4.748731   -2.231955    0.855523
H     -4.540123    1.957429   -0.084857
H     -2.127135    1.780423   -0.419186
H     -0.205676   -1.512943   -0.313886
H     -0.021293    1.500291    0.177386
H      2.081238    2.408799   -0.714054
H      5.644640    0.017869   -0.689477
H      1.893384   -1.782757    0.316593
H      3.967921   -3.067532    0.288854
H      5.679769    2.421522   -1.242084
H     -6.675526    0.848293    0.475806
