27

C      2.350122    1.514238    1.352110
O      1.837397    0.295370    0.859703
C      1.266879    0.484893   -0.423908
C      1.076933   -0.885083   -1.104878
C      0.071883   -1.763699   -0.317718
C     -0.911783   -0.902204    0.505995
C     -1.133346    0.480363   -0.167406
O      0.062124    1.242767   -0.323896
C     -2.134191    1.321691    0.639877
O     -2.336756    2.566523    0.026797
O     -2.124781   -1.590613    0.693531
O      0.760531   -2.624384    0.553838
O      0.619232   -0.680004   -2.417923
H      3.181014    1.887522    0.713676
H      1.552863    2.284308    1.444446
H      2.762165    1.338547    2.366847
H      1.971077    1.052353   -1.077116
H      2.071918   -1.389441   -1.143750
H     -0.510435   -2.377621   -1.045812
H     -0.474982   -0.719511    1.513111
H     -1.572724    0.315014   -1.176596
H     -1.731847    1.494338    1.661081
H     -3.107090    0.789407    0.742403
H     -2.918130    2.403730   -0.761443
H     -2.568286   -1.666870   -0.191752
H      1.142671   -3.353008   -0.002303
H      0.797540   -1.518625   -2.918913
