11

C     -0.125961   -0.354156    0.609281
C      0.996511    0.622864    0.418442
O      1.036181    1.676322    1.106825
O      1.974047    0.397634   -0.546117
N     -1.195391   -0.104936   -0.355304
H     -0.527202   -0.266508    1.643309
H      0.260574   -1.388847    0.480822
H      1.954516   -0.431693   -1.127520
H     -1.577038    0.860543   -0.226043
H     -1.963874   -0.796790   -0.200331
H     -0.832364   -0.214432   -1.330350
