42

C      7.522205   -1.369758   -1.428919
C      6.765616   -2.272006   -0.678846
C      5.459906   -1.946766   -0.299245
C      4.890845   -0.717350   -0.675396
C      5.670715    0.193024   -1.419287
C      6.976646   -0.137824   -1.795279
C      3.504969   -0.414520   -0.238715
C      2.715367    0.490147   -0.839317
C      1.330454    0.791407   -0.399742
C      0.764895    2.025390   -0.758456
C     -0.539174    2.349537   -0.374698
C     -1.303734    1.449361    0.379069
C     -0.757988    0.196387    0.705287
C      0.546530   -0.129848    0.322372
N     -2.651332    1.797074    0.739258
C     -3.304922    1.343120    1.934814
O     -2.634459    0.867191    2.890775
C     -4.798100    1.433059    2.058204
C     -5.469317    0.069364    1.829620
C     -5.287553   -0.476825    0.404145
C     -5.972410    0.381182   -0.614612
O     -7.226762    0.345171   -0.729922
O     -5.224434    1.236717   -1.417206
H      8.533620   -1.622174   -1.720249
H      7.191261   -3.224309   -0.389837
H      4.889250   -2.660644    0.282396
H      5.293589    1.168369   -1.692070
H      7.569450    0.566101   -2.365154
H      3.127267   -0.977663    0.603825
H      3.091559    1.055515   -1.680716
H      1.337251    2.745010   -1.331481
H     -0.952458    3.309570   -0.657901
H     -1.348611   -0.544861    1.227123
H      0.917979   -1.115444    0.565665
H     -3.166585    2.466402    0.123883
H     -5.202272    2.184624    1.347154
H     -5.049765    1.787128    3.081184
H     -5.052712   -0.667180    2.551204
H     -6.555433    0.162045    2.049822
H     -5.719488   -1.499515    0.355293
H     -4.207814   -0.565501    0.158175
H     -5.674052    1.832199   -2.102222
