35

C      4.162755    1.329428    1.565726
N      4.277564    0.631314    0.283329
C      5.578382    0.476606   -0.373761
C      3.096403    0.087411   -0.330123
O      3.178501   -0.495902   -1.446312
O      1.850878    0.258546    0.291820
C      0.678433   -0.442879   -0.028195
C      0.706137   -1.756249   -0.518123
C     -0.482891   -2.417261   -0.810777
C     -1.709701   -1.784351   -0.610082
C     -1.785065   -0.464318   -0.097238
C     -0.553319    0.185410    0.194074
N     -3.100789    0.173954    0.113933
C     -3.827306    0.248845   -1.177497
C     -3.005056    1.555721    0.653819
C     -3.890770   -0.628968    1.079495
H      3.488452    2.204946    1.455902
H      5.148266    1.692459    1.925471
H      3.745287    0.640728    2.330406
H      6.394999    0.941188    0.217655
H      5.809026   -0.602642   -0.497310
H      5.553047    0.961599   -1.372423
H      1.641023   -2.284054   -0.647032
H     -0.455502   -3.431507   -1.188272
H     -2.603465   -2.341356   -0.852546
H     -0.513033    1.188868    0.589492
H     -4.801606    0.775773   -1.063077
H     -4.057779   -0.758834   -1.584486
H     -3.225350    0.797087   -1.936820
H     -4.013846    2.005096    0.798565
H     -2.453193    2.223558   -0.045248
H     -2.503801    1.565704    1.647741
H     -3.337391   -0.748348    2.038144
H     -4.120925   -1.642700    0.687578
H     -4.868365   -0.144869    1.303012
