21

C     -0.046888   -0.873552   -0.080446
C      1.195606   -0.073410   -0.503057
C      2.436064   -0.708591    0.048963
O      3.082228   -1.534170   -0.649881
N      2.865455   -0.417830    1.378882
C     -1.382466   -0.252825   -0.538987
C     -1.608924    1.112694    0.071201
O     -1.324807    2.158741   -0.572657
N     -2.102376    1.224715    1.406130
N     -1.481782   -0.230018   -2.002482
H      0.027020   -1.902697   -0.496549
H     -0.061922   -0.966277    1.028591
H      1.271893   -0.039120   -1.610559
H      1.130350    0.969873   -0.128165
H      2.326574    0.245221    1.979138
H      3.721973   -0.871355    1.767295
H     -2.189058   -0.921095   -0.162708
H     -2.245574    2.164525    1.837912
H     -2.318693    0.371637    1.967965
H     -2.455366    0.050372   -2.263632
H     -0.839308    0.493163   -2.398778
