44

C      6.939792    1.683609    0.543852
C      6.486891    1.516969   -0.766276
C      5.339723    0.759295   -1.020779
C      4.636982    0.150194    0.033478
C      5.095025    0.338124    1.354292
C      6.242816    1.097817    1.602572
C      3.419502   -0.634925   -0.285251
C      2.883915   -1.548758    0.534870
C      1.660536   -2.327246    0.143743
C      0.408518   -1.439151    0.164191
C     -0.862582   -2.245262   -0.188556
C     -2.164449   -1.451390    0.054551
C     -2.329658   -0.215824   -0.845112
C     -3.624013    0.488217   -0.534700
C     -3.672726    1.471676    0.466618
C     -4.883891    2.105161    0.780531
C     -6.055038    1.749446    0.098827
C     -6.011741    0.758598   -0.891430
C     -4.804514    0.127456   -1.203075
O     -7.256759    2.381852    0.412366
O     -4.931251    3.086304    1.769269
O     -0.817310   -2.751732   -1.500956
H      7.827036    2.271902    0.739306
H      7.024285    1.976143   -1.585989
H      5.004432    0.641895   -2.044237
H      4.563503   -0.075401    2.199719
H      6.588199    1.238382    2.618754
H      2.963246   -0.484243   -1.257498
H      3.349023   -1.789389    1.480859
H      1.807689   -2.766687   -0.867052
H      1.528163   -3.162870    0.864870
H      0.294180   -1.003568    1.181540
H      0.541372   -0.603403   -0.555482
H     -0.902126   -3.118831    0.498889
H     -2.198393   -1.135261    1.120782
H     -3.025630   -2.135287   -0.113865
H     -1.485849    0.489306   -0.691038
H     -2.323130   -0.516645   -1.914563
H     -2.771574    1.743602    1.002818
H     -6.914096    0.474509   -1.417769
H     -4.789746   -0.643076   -1.964046
H     -8.119917    2.145170   -0.062859
H     -4.101532    3.364591    2.280168
H     -0.558902   -2.011267   -2.108625
