36

C      1.436271   -0.843176   -1.772351
C      2.411801   -0.829916   -0.623087
C      3.782044   -0.976267   -0.895023
C      4.722446   -0.932603    0.138027
C      4.299029   -0.756884    1.454501
C      2.939914   -0.634745    1.757448
C      1.978818   -0.661699    0.717789
C      0.544857   -0.487619    1.027457
O     -0.294973   -1.330941    0.611330
O      0.129585    0.616409    1.779835
C     -1.239292    0.914851    2.042868
C     -1.881254    1.549177    0.838047
O     -1.362048    2.539177    0.343379
C     -3.184226    1.023517    0.269956
C     -3.088377    0.779059   -1.258209
C     -4.415614    0.269041   -1.836283
O     -2.053051   -0.123544   -1.556251
O     -4.226290    1.917810    0.573645
O      2.579699   -0.515027    3.101985
O      6.082577   -1.064886   -0.133610
H      0.846124   -1.782837   -1.752450
H      1.956363   -0.779973   -2.751923
H      0.751339    0.027806   -1.700802
H      4.124116   -1.112604   -1.913748
H      5.030817   -0.732622    2.252559
H     -1.777931   -0.001268    2.367640
H     -1.283238    1.641088    2.880903
H     -3.427625    0.054856    0.757645
H     -2.852912    1.741654   -1.762902
H     -5.211436    1.033785   -1.712968
H     -4.731094   -0.666410   -1.326556
H     -4.297541    0.062194   -2.921152
H     -2.293306   -0.998461   -1.152769
H     -4.040551    2.771374    0.100611
H      1.620449   -0.516855    3.422702
H      6.424510   -1.193464   -1.078791
