36

C      0.810188   -2.988497    0.362484
C     -0.066557   -1.759964    0.477962
C      0.413985   -0.569585    0.915668
C     -0.513856    0.590248    1.033120
O     -0.097788    1.653704    1.564186
C     -1.923123    0.498839    0.545075
C     -2.376830   -0.685127    0.070283
C     -1.476451   -1.853707    0.025521
O     -1.923611   -2.945003   -0.421022
O     -3.687404   -0.899615   -0.406707
C     -4.753328    0.043343   -0.463087
O     -2.788510    1.607546    0.562347
C     -2.455805    2.935983    0.949532
C      1.869905   -0.386556    1.324606
C      2.825741   -0.600911    0.174347
C      2.972252    0.241673   -0.871760
C      2.164900    1.510966   -0.997995
C      3.981841   -0.104136   -1.935662
H      0.205010   -3.917839    0.329527
H      1.410362   -2.932638   -0.569385
H      1.484295   -3.091778    1.236372
H     -4.487835    0.885890   -1.135641
H     -5.001481    0.406670    0.556339
H     -5.651718   -0.457499   -0.878165
H     -1.619051    3.319937    0.328593
H     -3.338148    3.587823    0.785828
H     -2.197938    2.968807    2.028714
H      2.061901    0.613917    1.763211
H      2.109282   -1.103901    2.137255
H      3.449275   -1.490736    0.218310
H      2.282633    2.135062   -0.087884
H      1.094760    1.264132   -1.150226
H      2.496437    2.117639   -1.865988
H      4.002899    0.654310   -2.745649
H      4.995795   -0.162585   -1.486212
H      3.727974   -1.086411   -2.387820
