35

C     -1.543370   -0.975671    1.135148
C     -0.698113   -0.789284   -0.136905
C      0.810378   -0.948017    0.132974
C      1.148097   -2.356145    0.577257
O      1.679397   -2.540650    1.703856
O      0.886523   -3.456912   -0.235842
N      1.562621   -0.569672   -1.077030
C      2.998894   -0.409547   -0.805685
C      3.710100    0.185022   -2.023610
C      3.207741    1.566209   -2.324256
O      2.336629    1.737724   -3.217088
O      3.667988    2.660217   -1.597581
C     -3.041294   -0.786083    0.857644
N     -3.338971    0.585292    0.442967
C     -3.405875    1.634345    1.212893
N     -3.213887    1.548362    2.631291
N     -3.687583    2.904046    0.624692
H     -1.207955   -0.258930    1.914282
H     -1.394243   -2.002956    1.531636
H     -1.026331   -1.512070   -0.915087
H     -0.873269    0.233723   -0.536693
H      1.068158   -0.238777    0.953250
H      0.462164   -3.357437   -1.149461
H      1.437042   -1.300552   -1.816405
H      3.457153   -1.396901   -0.574916
H      3.160002    0.262492    0.066860
H      4.801386    0.233306   -1.820713
H      3.561217   -0.474453   -2.906515
H      4.357243    2.548362   -0.863665
H     -3.642545   -1.061559    1.750057
H     -3.347323   -1.475425    0.042086
H     -3.254473    2.414352    3.212699
H     -3.052937    0.645073    3.126288
H     -3.751690    3.761322    1.217076
H     -3.832875    2.991194   -0.405856
