43

C     -1.055042   -3.035285   -1.599511
C      0.400282   -3.119783   -1.112605
C      0.430782   -2.108332    0.050683
C     -0.936049   -2.363351    0.657302
C     -1.696670   -2.040342   -0.609137
C     -1.201762   -0.606726   -0.951575
C      0.298768   -0.631648   -0.455471
C      0.641848    0.311650    0.715560
O     -0.216563    0.556661    1.606143
C      1.994517    0.899211    0.896247
C      2.120834    2.191834    1.436513
C      3.383856    2.759491    1.629616
C      4.533420    2.040440    1.295560
C      4.422038    0.750608    0.771849
C      3.161260    0.178482    0.576246
N      1.209962   -0.342007   -1.580972
C     -2.061048    0.542735   -0.431126
C     -1.848465    1.827325   -0.966339
C     -2.589058    2.921654   -0.511775
C     -3.551348    2.750316    0.484247
C     -3.773088    1.484488    1.029094
C     -3.034859    0.385316    0.579600
H     -1.548434   -4.029164   -1.519129
H     -1.117264   -2.689815   -2.654218
H      0.610369   -4.141280   -0.723561
H      1.140262   -2.914919   -1.911370
H      1.269489   -2.287845    0.757539
H     -1.078314   -3.418338    0.990965
H     -1.183075   -1.695958    1.508064
H     -2.798790   -2.161866   -0.546147
H     -1.245159   -0.500179   -2.059041
H      1.240671    2.766755    1.697779
H      3.470989    3.757685    2.038924
H      5.510474    2.480862    1.446714
H      5.314009    0.190740    0.521870
H      3.104891   -0.829506    0.188705
H      0.909062   -0.824822   -2.456762
H      1.149751    0.678890   -1.803005
H     -1.101831    1.981713   -1.735477
H     -2.414698    3.904026   -0.931293
H     -4.123384    3.599069    0.836142
H     -4.516101    1.354711    1.805440
H     -3.226534   -0.573497    1.037712
