43

C     -3.954306   -0.116904   -1.354910
C     -2.923115   -0.016851   -0.262011
C     -3.143357    0.834922    0.831942
C     -4.301421    1.769246    1.073439
O     -3.993370    2.364295    2.334005
C     -2.806256    1.847465    2.826094
O     -2.298178    2.194030    3.923708
C     -2.264386    0.884672    1.888919
C     -1.115164    0.089639    1.934829
C     -0.831069   -0.744414    0.827956
C     -1.725266   -0.789431   -0.281276
O     -1.395852   -1.627462   -1.360961
C     -1.447157   -1.241857   -2.731906
C      0.417082   -1.607206    0.848438
C      1.677923   -0.788506    1.001223
C      2.207317   -0.003406    0.036104
C      1.554660    0.144557   -1.315899
C      3.490155    0.751001    0.320834
C      4.712258   -0.176121    0.325496
C      4.960364   -0.763015   -1.033426
O      4.573999   -1.933055   -1.292692
O      5.579848   -0.010289   -2.026645
O     -0.258545    0.101533    3.037962
H     -4.940987    0.273100   -1.032821
H     -3.626770    0.469400   -2.238000
H     -4.113697   -1.179565   -1.631419
H     -4.352289    2.547712    0.283266
H     -5.255528    1.206154    1.148317
H     -1.238941   -0.156596   -2.843757
H     -2.431011   -1.496158   -3.172735
H     -0.672985   -1.806751   -3.290349
H      0.339175   -2.297457    1.715716
H      0.510258   -2.255835   -0.046465
H      2.192014   -0.860382    1.956444
H      2.179199    0.755189   -2.000619
H      1.419456   -0.851195   -1.786141
H      0.574051    0.650464   -1.207711
H      3.408733    1.251779    1.310278
H      3.647157    1.559276   -0.426222
H      4.576261   -0.988728    1.072203
H      5.606601    0.407899    0.631093
H      5.884619    0.939433   -1.849736
H     -0.421480    0.669417    3.857433
