15

C     -1.154230    1.358351    0.156917
C      0.215914    1.084332    0.210290
C      0.684712   -0.235350    0.066926
C     -0.249975   -1.272731   -0.113122
C     -1.620252   -0.993275   -0.166838
C     -2.070959    0.322723   -0.034019
Cl    -2.772976   -2.294797   -0.401128
C      2.134039   -0.546110    0.125748
O      2.511614   -1.713727    0.411068
O      3.104254    0.419030   -0.142262
H     -1.506209    2.375642    0.270521
H      0.896845    1.904930    0.388706
H      0.082785   -2.297764   -0.222379
H     -3.130126    0.543155   -0.073484
H      2.874564    1.345592   -0.476942
