24

C      3.512072   -0.450106    0.078381
C      2.956598    0.768475    0.478055
C      1.613805    1.049216    0.206880
C      0.818398    0.112482   -0.474403
C      1.381588   -1.114690   -0.863921
C      2.724823   -1.391377   -0.590587
C     -0.636601    0.403717   -0.739892
C     -1.508043    0.077481    0.488748
C     -2.977963    0.478412    0.249131
O     -3.095500    1.863911    0.065333
N     -1.410707   -1.349525    0.809271
H      4.551248   -0.666345    0.290050
H      3.565838    1.494599    1.000584
H      1.193070    1.994048    0.528275
H      0.780968   -1.856270   -1.375957
H      3.154722   -2.336905   -0.894946
H     -0.989613   -0.179589   -1.619088
H     -0.743959    1.478772   -1.003133
H     -1.126776    0.659562    1.358086
H     -3.366596   -0.034990   -0.656424
H     -3.606949    0.158072    1.110903
H     -2.986099    2.279585    0.960281
H     -1.929234   -1.531159    1.699409
H     -1.875088   -1.907375    0.055421
