26

C      1.977605   -1.335501   -0.054058
C      0.834357   -0.518814   -0.699785
C      0.686485    0.907835   -0.084800
C     -0.775280    1.378858   -0.220354
C     -1.751119    0.375574    0.446843
C     -1.134265   -1.049037    0.486455
O     -0.370792   -1.281980   -0.684348
O     -2.141750   -2.019671    0.586177
N     -3.034759    0.405428   -0.262980
O     -0.948619    2.670628    0.308365
O      1.540386    1.800356   -0.755454
N      3.293624   -0.743425   -0.293685
H      1.972017   -2.361224   -0.481967
H      1.816057   -1.434639    1.040673
H      1.089371   -0.390056   -1.775024
H      0.951421    0.869851    0.999423
H     -1.000128    1.431531   -1.309699
H     -1.929864    0.687257    1.501061
H     -0.492620   -1.131858    1.396561
H     -1.681139   -2.892118    0.696902
H     -2.943365   -0.106072   -1.171415
H     -3.755586   -0.088954    0.311459
H     -0.667511    2.646762    1.260511
H      1.696778    2.566514   -0.143805
H      3.360593    0.165135    0.218473
H      3.408101   -0.552379   -1.315527
