21

C     -0.316968   -1.571216    1.327938
C      0.021504   -0.769775    0.051336
C      0.908260    0.442347    0.449707
C      1.398575    1.274700   -0.741963
O      2.290802    2.253604   -0.287070
C     -1.285860   -0.335024   -0.675925
C     -2.130648    0.623384    0.113852
O     -2.984305    0.190722    0.932155
O     -1.965218    1.993554   -0.044434
O      0.774386   -1.593620   -0.809422
H      0.610280   -1.988294    1.776429
H     -0.808924   -0.926606    2.086967
H     -0.995477   -2.418627    1.090937
H      0.362478    1.106835    1.154438
H      1.804115    0.064676    0.991536
H      1.915265    0.618229   -1.476795
H      0.538426    1.771280   -1.240362
H      2.580549    2.758196   -1.091187
H     -1.897997   -1.234452   -0.907289
H     -1.039939    0.124475   -1.656352
H      0.220693   -2.384387   -1.044496
