26

C      2.631461    0.033131    0.241129
C      1.127419    0.046669   -0.098361
C      0.399153   -1.227655    0.406399
C     -1.127599   -0.973704    0.538067
C     -1.590596    0.162245   -0.400897
C     -0.746767    1.452626   -0.125857
O      0.522695    1.193490    0.467626
O     -1.450816    2.345895    0.697808
N     -3.024801    0.419978   -0.239042
O     -1.846987   -2.160083    0.307150
O      0.910211   -1.629928    1.652824
N      3.340851    1.137372   -0.403785
H      2.775568    0.109380    1.340891
H      3.081128   -0.925703   -0.097876
H      1.051819    0.076728   -1.212547
H      0.589617   -2.030455   -0.344675
H     -1.344178   -0.648582    1.580487
H     -1.404111   -0.157712   -1.452916
H     -0.580225    1.969956   -1.096561
H     -1.498591    1.930883    1.598601
H     -3.552924   -0.430092   -0.542500
H     -3.296528    1.175264   -0.910041
H     -1.712507   -2.412781   -0.643734
H      0.613448   -2.566851    1.794286
H      2.922411    2.042723   -0.089249
H      3.210848    1.067206   -1.439270
