26

C     -1.642302    0.205018   -1.458847
N     -0.698056   -0.118904   -0.356384
C      0.133679   -1.272608   -0.817303
C      1.272830   -1.632995    0.150917
C      2.166957   -0.423722    0.403994
C      1.339229    0.761026    0.894885
C      0.180945    1.073525   -0.082900
C     -0.586130    2.285211    0.407956
O     -0.935412    3.181057   -0.405552
O     -0.923892    2.417066    1.750457
C     -1.508469   -0.517503    0.827291
H     -2.251336   -0.683808   -1.740797
H     -1.100126    0.546357   -2.369160
H     -2.353683    1.008435   -1.167056
H     -0.495554   -2.179776   -0.967349
H      0.595103   -1.044695   -1.806684
H      0.868329   -2.018762    1.110204
H      1.884822   -2.445760   -0.296581
H      2.695608   -0.146897   -0.534879
H      2.933265   -0.682395    1.166192
H      2.006745    1.647679    0.970522
H      0.961725    0.550970    1.917832
H      0.673309    1.378184   -1.037401
H     -2.253864    0.263287    1.092550
H     -2.079343   -1.451141    0.624222
H     -0.884375   -0.698850    1.723872
