22

C     -1.781939   -0.542096   -0.815307
C     -0.867370    0.532541   -0.227050
C     -1.881378   -0.179131    0.665533
N     -3.059021    0.622640    1.006878
C      0.594648    0.159789   -0.051609
C      1.033822   -1.122852    0.347450
C      2.398770   -1.391416    0.490132
C      3.340971   -0.392528    0.239427
C      2.920744    0.878496   -0.155353
C      1.557673    1.153288   -0.300060
H     -1.320015   -1.529915   -1.018173
H     -2.594037   -0.144114   -1.460322
H     -1.125524    1.569191   -0.536084
H     -1.539479   -0.940033    1.398012
H     -3.863622   -0.022240    1.176461
H     -3.320637    1.303764    0.256647
H     -2.857840    1.148834    1.886928
H      0.335949   -1.923048    0.548337
H      2.726316   -2.376889    0.795489
H      4.396689   -0.603564    0.350825
H      3.651760    1.652738   -0.349620
H      1.253518    2.146545   -0.607061
