43

C     -3.250615   -2.777420    0.691122
C     -2.381428   -3.853386    0.530569
C     -1.087550   -3.659702    0.042906
O     -0.316533   -4.648578   -0.079806
C     -0.636157   -2.381906   -0.309359
C     -1.477273   -1.246795   -0.186100
C     -2.838275   -1.482436    0.359155
C     -3.686282   -0.404776    0.535790
C     -3.251796    0.885844    0.230681
C     -1.946710    1.107811   -0.290289
N     -1.091493    0.037155   -0.541350
C      0.221376    0.244025   -1.207194
C      1.369112    0.355481   -0.174128
C      2.762983    0.296366   -0.858376
C      3.937418    0.583331    0.113708
C      4.037602   -0.445008    1.250787
O      5.162718   -0.167378    2.038299
O      5.145121    0.580209   -0.604644
O      2.951208   -0.968295   -1.447427
O      1.222888    1.524065    0.593961
N     -1.568580    2.408713   -0.527239
C     -2.409949    3.455541   -0.309977
O     -2.022507    4.632433   -0.544587
N     -3.662600    3.242588    0.160917
C     -4.099306    1.990270    0.440181
O     -5.268235    1.832396    0.889585
H     -4.244999   -2.958322    1.082301
H     -2.715798   -4.848881    0.796545
H      0.382263   -2.309971   -0.659489
H     -4.682420   -0.571715    0.931426
H      0.219409    1.106532   -1.899897
H      0.413801   -0.581519   -1.921874
H      1.289169   -0.506650    0.518777
H      2.791550    1.094235   -1.640679
H      3.795013    1.586869    0.578580
H      4.124274   -1.471408    0.828995
H      3.130368   -0.392600    1.891138
H      5.184096   -0.864160    2.744839
H      5.184453    1.435539   -1.107708
H      2.767428   -0.876643   -2.418711
H      1.462774    2.295231    0.016692
H     -0.618456    2.664916   -0.858627
H     -4.298062    4.058000    0.320507
