50

C     -9.001624    1.089175    1.448189
C     -7.942417    1.691908    0.528778
O     -6.985107    0.707437    0.181458
C     -5.840715    0.812683    1.004850
C     -4.962971   -0.418963    0.799515
O     -3.813593   -0.343806    1.625607
C     -2.687451    0.121618    0.905360
C     -1.919227   -1.052002    0.299430
O     -0.769811   -0.564802   -0.360074
C     -0.106656   -1.635511   -1.000770
C      1.155291   -1.116008   -1.687590
O      2.039073   -0.536444   -0.743684
C      2.971712   -1.485976   -0.258310
C      4.259926   -1.444644   -1.079911
O      4.861370   -0.172828   -0.947113
C      6.104917   -0.137693   -1.624103
C      7.255793   -0.451804   -0.663580
O      7.214230    0.410320    0.459368
C      8.125207    1.477817    0.299300
C      7.993737    2.419329    1.454345
O      8.717307    3.399437    1.529599
O    -10.002681    2.035235    1.701123
H     -8.530522    0.778932    2.407484
H     -9.443626    0.192638    0.957051
H     -7.499325    2.604008    0.996439
H     -8.439958    2.027884   -0.406123
H     -6.116291    0.866785    2.084283
H     -5.261115    1.721588    0.727507
H     -5.544033   -1.316095    1.103443
H     -4.731328   -0.547205   -0.284918
H     -2.949055    0.868228    0.118579
H     -2.017737    0.644023    1.621213
H     -1.629532   -1.745027    1.121783
H     -2.588958   -1.586486   -0.412276
H     -0.759745   -2.088283   -1.782074
H      0.179536   -2.424641   -0.267474
H      0.860080   -0.327792   -2.412316
H      1.625141   -1.929770   -2.288883
H      2.571637   -2.527325   -0.231645
H      3.216837   -1.222386    0.793558
H      4.015472   -1.650172   -2.146200
H      4.934922   -2.244818   -0.701099
H      6.248480    0.887892   -2.022456
H      6.152704   -0.820278   -2.506763
H      8.224332   -0.423495   -1.218542
H      7.146171   -1.494013   -0.300151
H      7.916083    2.043571   -0.636821
H      9.170436    1.094429    0.281828
H      7.258712    2.237927    2.232304
H    -10.675629    1.575402    2.267827
