20

C     -1.313639   -0.423980   -1.101913
C      0.189780   -0.142110   -1.165378
C      0.609540    0.787209   -0.015448
C      0.146477    0.210436    1.337228
N     -1.305937   -0.019428    1.348923
C     -1.704020   -0.953595    0.285390
C      2.099167    1.017890   -0.024197
O      2.546864    2.182682   -0.193604
O      2.997476   -0.033200    0.150324
H     -1.582140   -1.176224   -1.874526
H     -1.879124    0.509094   -1.317422
H      0.739772   -1.106986   -1.107443
H      0.431041    0.334101   -2.140740
H      0.102714    1.768377   -0.162250
H      0.402512    0.926105    2.148821
H      0.671625   -0.744275    1.560504
H     -1.797611    0.893863    1.202039
H     -2.805300   -1.097436    0.321591
H     -1.233495   -1.946648    0.459484
H      2.684297   -0.985873    0.288619
