23

C     -3.592860   -1.060629   -0.951572
C     -2.442816   -0.920983   -1.731264
C     -1.270033   -0.407556   -1.168315
C     -1.235665   -0.033023    0.188751
C     -2.405506   -0.166624    0.960260
C     -3.574818   -0.681541    0.392176
C     -0.003429    0.520016    0.800964
O     -0.097808    1.259424    1.819104
N      1.294853    0.214402    0.266014
C      2.503353    0.889662    0.751160
C      3.737253    0.271124    0.148144
O      4.107379    0.597385   -1.010810
O      4.448484   -0.705846    0.839255
O      2.449262    2.263796    0.461335
H     -4.499343   -1.457544   -1.390020
H     -2.461532   -1.204588   -2.775702
H     -0.404294   -0.283089   -1.804708
H     -2.412964    0.116881    2.005497
H     -4.467731   -0.786595    0.994877
H      1.387598   -0.542303   -0.448689
H      2.559723    0.773893    1.854829
H      4.161522   -1.013238    1.760777
H      2.219370    2.356976   -0.500543
