45

C      1.740271   -0.153886   -1.582531
C      1.016839    0.023279   -0.236355
C      1.786291   -0.728909    0.874283
C      3.289647   -0.868602    0.529293
C      3.767911    0.316181   -0.372342
O      3.045366    0.410533   -1.601610
C      5.256593    0.139792   -0.740171
O      5.433538   -1.011609   -1.519989
O      3.610303    1.538611    0.312754
O      4.048398   -0.925091    1.711783
O      1.231839   -2.006934    1.068157
O     -0.307714   -0.482356   -0.332326
C     -1.254570    0.544682   -0.588015
C     -1.651603    1.297728    0.722318
C     -3.148473    1.667119    0.695107
C     -4.018055    0.404716    0.474290
C     -3.260312   -0.651689   -0.373452
O     -2.369436   -0.015289   -1.271634
C     -4.227307   -1.539037   -1.165789
O     -4.890458   -0.787426   -2.145574
O     -4.362628   -0.167198    1.711075
O     -3.391312    2.583588   -0.343109
O     -1.381225    0.496269    1.846253
H      1.799723   -1.232495   -1.847115
H      1.144411    0.339234   -2.378713
H      1.040827    1.109546    0.023431
H      1.675572   -0.132987    1.812153
H      3.438001   -1.812434   -0.048771
H      5.880359    0.070020    0.179312
H      5.595132    1.030009   -1.317055
H      6.404108   -1.062271   -1.720745
H      4.182429    1.520081    1.123962
H      3.947970   -1.843025    2.076061
H      1.498289   -2.302938    1.977496
H     -0.835504    1.300522   -1.293261
H     -1.046461    2.232700    0.789099
H     -3.429745    2.140232    1.665674
H     -4.950533    0.713164   -0.056251
H     -2.694805   -1.334982    0.304939
H     -3.649521   -2.355749   -1.653878
H     -4.967494   -1.998535   -0.472497
H     -5.499424   -1.418130   -2.610510
H     -5.085823    0.393003    2.097400
H     -3.038538    3.461475   -0.041574
H     -1.372877    1.099089    2.635095
