18

C     -0.509875   -0.246117    0.873924
C     -1.482160   -1.387114    0.852976
O     -1.267097   -2.515871    1.367864
N     -2.695246   -1.057127    0.193125
C     -2.508299    0.286623   -0.202756
O     -3.376734    0.953894   -0.823147
N     -1.241601    0.808057    0.172977
N      0.697661   -0.608279    0.135479
C      1.784809    0.103586    0.049877
N      1.917030    1.365167    0.718261
N      2.875736   -0.391937   -0.725862
H     -0.282752    0.046224    1.921717
H     -3.533374   -1.661816    0.045145
H     -0.905187    1.779195   -0.010683
H      2.799045    1.914749    0.619425
H      1.165507    1.763520    1.321521
H      2.802500   -1.309369   -1.219609
H      3.760037    0.156616   -0.809606
