20

C     -0.942035   -1.009337   -0.436309
C     -0.665741    0.488814   -0.265554
C      0.839218    0.777068   -0.154574
O      1.359516    0.233923    1.053754
N      2.693084    0.351156    1.386780
O      3.105490   -0.142839    2.454703
O      3.574786    1.004420    0.556045
O     -1.203812    1.179302   -1.392243
N     -1.441894    2.539752   -1.383014
O     -1.879077    3.091978   -2.411815
O     -1.249178    3.287802   -0.243806
O     -0.592415   -1.717324    0.748000
N     -0.744712   -3.084792    0.847307
O     -0.422450   -3.663905    1.903408
O     -1.245871   -3.818800   -0.203569
H     -0.365048   -1.410012   -1.298308
H     -2.025078   -1.158528   -0.637863
H     -1.181490    0.837215    0.656951
H      1.376215    0.339723   -1.024422
H      1.010489    1.874387   -0.155470
