31

C     -1.970129   -2.004045    1.572758
C     -1.353157   -1.051103    0.585962
C     -0.001612   -1.189837    0.236369
C      0.592115   -0.313094   -0.679035
C     -0.171354    0.719614   -1.234926
C     -1.522866    0.875864   -0.897698
C     -2.128734   -0.016601    0.022409
O     -3.479057    0.071285    0.414664
C     -4.428015    1.033375   -0.031499
O     -2.244637    1.916571   -1.479211
C      2.054794   -0.445920   -1.025675
C      2.927252    0.525111   -0.206912
C      2.854820    0.200597    1.263634
O      2.250417    0.979115    2.047413
O      3.427309   -0.964513    1.767922
N      4.317254    0.447317   -0.657653
H     -1.244970   -2.775155    1.909761
H     -2.833739   -2.521419    1.104203
H     -2.321580   -1.442621    2.463945
H      0.593051   -1.979515    0.680401
H      0.288188    1.409343   -1.932724
H     -5.401075    0.831825    0.461237
H     -4.571801    0.951258   -1.129301
H     -4.101267    2.055858    0.251941
H     -1.820278    2.560021   -2.137181
H      2.185058   -0.232365   -2.109410
H      2.397524   -1.492376   -0.867376
H      2.557026    1.564075   -0.370271
H      3.912167   -1.617107    1.163899
H      4.358953    0.758839   -1.655551
H      4.878342    1.145601   -0.116579
