13

C     -1.832409   -0.200511   -0.302112
C     -0.440091   -0.741724   -0.185018
C      0.632361    0.022068    0.096616
C      1.974128   -0.597399    0.193590
O      2.981244    0.111250    0.456668
O      2.145769   -1.963601   -0.002674
N      0.501466    1.437806    0.306908
H     -2.144985    0.261760    0.657903
H     -1.883553    0.549875   -1.119016
H     -2.535398   -1.026392   -0.539449
H     -0.318873   -1.807240   -0.339950
H     -0.416919    1.930015    0.251594
H      1.337260    2.024091    0.524939
