29

C     -3.435181   -0.362527    0.227970
C     -1.952350   -0.531433   -0.143334
C     -1.162919   -1.010352    1.092225
C      0.329683   -1.179949    0.778939
C      0.935990    0.146027    0.278637
C      0.200880    0.650042   -0.977668
C     -1.290403    0.718431   -0.726588
C     -1.978821    1.797497   -1.146479
C      2.432958    0.013411    0.030265
C      2.915994   -0.846557   -0.883030
C      3.407186    0.853820    0.814938
H     -4.042752   -0.173942   -0.682296
H     -3.567768    0.474484    0.946830
H     -3.822405   -1.293729    0.694221
H     -1.895924   -1.329109   -0.917007
H     -1.565086   -1.988149    1.437038
H     -1.282446   -0.280931    1.924335
H      0.451657   -1.980114    0.016694
H      0.856341   -1.502670    1.703581
H      0.773215    0.903998    1.077461
H      0.610959    1.646943   -1.254747
H      0.374201   -0.037203   -1.833217
H     -3.053563    1.880305   -1.044381
H     -1.467987    2.637252   -1.607707
H      3.985317   -0.933625   -1.052183
H      2.256906   -1.474212   -1.473354
H      4.001787    1.484889    0.120884
H      4.094920    0.195232    1.386584
H      2.889609    1.522170    1.533742
