37

C     -3.756749   -2.368608    2.177535
C     -2.408323   -2.701886    2.331285
C     -1.583032   -2.819217    1.208642
C     -2.101335   -2.594466   -0.077726
C     -3.461130   -2.272623   -0.225042
C     -4.282969   -2.156146    0.900385
C     -1.211499   -2.731233   -1.284804
O     -0.019271   -1.961461   -1.126388
C      0.046300   -0.558959   -1.127542
C      1.283621    0.044111   -0.829077
C      1.357273    1.437045   -0.819823
C      0.265808    2.217500   -1.097930
C     -0.973274    1.660575   -1.402256
C     -1.081347    0.258783   -1.417875
N      0.573077    3.523900   -1.020994
C      1.881823    3.580821   -0.686006
C      2.406948    2.298125   -0.558122
C      3.803487    1.950724   -0.137246
C      3.962898    2.144829    1.343158
O      4.376574    3.253605    1.776320
C      3.605651    1.087137    2.301968
O      3.177202   -0.026548    1.900458
O      3.740273    1.314210    3.665969
H     -4.394359   -2.278098    3.047434
H     -2.002687   -2.870646    3.320454
H     -0.540579   -3.081544    1.341049
H     -3.884335   -2.107831   -1.208105
H     -5.328442   -1.902163    0.782239
H     -1.731019   -2.437186   -2.222452
H     -0.928451   -3.799381   -1.390063
H      2.151615   -0.563773   -0.611392
H     -1.828894    2.286752   -1.619991
H     -2.039488   -0.177204   -1.659485
H     -0.068004    4.333402   -1.176580
H      2.425840    4.503392   -0.530591
H      4.048931    0.905258   -0.418773
H      4.517866    2.608804   -0.677366
