30

C      4.541917    1.104740   -0.259089
C      3.051250    0.805157   -0.388889
C      2.649207   -0.389839    0.487781
C      1.182935   -0.803270    0.285732
C      0.193715    0.235737    0.842630
C     -1.251182   -0.287011    0.882844
C     -1.842730   -0.491930   -0.525808
C     -3.357646   -0.788360   -0.534376
C     -4.171373    0.364339    0.005602
O     -4.650258    0.322827    1.170119
O     -4.370818    1.503632   -0.768817
O     -3.656053   -1.998919    0.118980
H      4.796644    1.344330    0.795357
H      4.802579    1.977235   -0.894577
H      5.142128    0.231451   -0.592506
H      2.484369    1.709772   -0.083029
H      2.821021    0.586045   -1.454248
H      3.289828   -1.260159    0.224633
H      2.829578   -0.151488    1.559062
H      1.025345   -1.771044    0.810223
H      0.994914   -0.969926   -0.796620
H      0.229948    1.164642    0.234282
H      0.490938    0.499564    1.881200
H     -1.862222    0.457087    1.436800
H     -1.278956   -1.240317    1.452956
H     -1.656018    0.416163   -1.140564
H     -1.323815   -1.340954   -1.019999
H     -3.653404   -0.918042   -1.597778
H     -3.987535    1.575949   -1.703693
H     -3.464305   -1.887409    1.085581
