45

C      0.217565    2.807709   -0.306358
C     -0.726855    1.650763   -0.168103
C     -0.372334    0.313734   -0.073121
C     -1.565882   -0.357098    0.110698
O     -1.702841   -1.597051    0.289839
N     -2.583652    0.528217    0.104197
N     -2.074118    1.750475   -0.041591
C     -2.846216    2.996169   -0.041870
C     -3.979450    0.207508    0.243887
C     -4.423835   -0.564890    1.329358
C     -5.779098   -0.884268    1.458559
C     -6.697335   -0.440494    0.502795
C     -6.261033    0.320970   -0.585022
C     -4.906562    0.642283   -0.717012
N      0.960126   -0.218439   -0.029905
C      1.312546   -1.524036   -0.509351
O      0.505024   -2.189877   -1.211907
C      2.687225   -2.065030   -0.258070
C      3.665010   -1.551361   -1.322644
C      5.074746   -2.153258   -1.178358
C      5.819314   -1.722716    0.095912
C      6.023021   -0.240060    0.154228
O      6.945964    0.297532   -0.514373
O      5.168446    0.547328    0.919615
H      1.168268    2.481489   -0.776819
H      0.431716    3.232589    0.696113
H     -0.229303    3.591625   -0.952187
H     -3.770398    2.884137    0.561870
H     -2.256492    3.819546    0.412571
H     -3.113076    3.268985   -1.083850
H     -3.722127   -0.907766    2.079138
H     -6.117540   -1.475103    2.299889
H     -7.745936   -0.688893    0.603555
H     -6.971703    0.658856   -1.328152
H     -4.577370    1.218566   -1.572006
H      1.727775    0.403158    0.310171
H      3.012764   -1.743632    0.753180
H      2.657158   -3.176445   -0.275756
H      3.277246   -1.830645   -2.327205
H      3.717377   -0.441644   -1.287416
H      5.002134   -3.262578   -1.194327
H      5.678895   -1.854865   -2.063110
H      5.275821   -2.065042    1.000860
H      6.813299   -2.219716    0.111364
H      5.281713    1.553267    0.955832
