26

C      2.269262    0.381046    0.728768
C      2.345733   -0.194054   -0.480635
C      3.650167   -0.651892   -0.994324
O      3.719536   -1.188725   -2.131043
O      4.811482   -0.502454   -0.243643
O      1.225087   -0.381745   -1.316603
C     -0.157122   -0.142683   -1.016004
C     -0.411022    1.304097   -0.668824
C     -1.491008    1.661666    0.048838
C     -2.396056    0.613334    0.579662
C     -2.057564   -0.680114    0.543553
C     -0.689222   -1.115569    0.070328
N     -0.738791   -2.489983   -0.441831
C     -1.790405    3.086373    0.314850
O     -1.045180    3.997723   -0.134901
O     -2.902292    3.437895    1.071073
H      1.341943    0.742836    1.142525
H      3.150292    0.511726    1.343879
H     -0.730621   -0.335700   -1.948746
H      0.256019    2.054785   -1.075756
H     -3.355208    0.890219    0.998869
H     -2.745829   -1.416235    0.941055
H     -0.019313   -1.095872    0.954990
H     -1.046563   -3.140724    0.317368
H     -1.406337   -2.559655   -1.244672
H      0.213012   -2.786294   -0.758193
