18

C      0.248790    0.633604   -0.938124
C      0.822261   -0.633045   -0.325357
N      0.133481   -0.828391    0.955588
C     -1.181580   -0.185495    0.828985
C     -1.191543    0.630804   -0.467562
O     -1.640750    1.941983   -0.247455
C      2.317749   -0.557500   -0.158333
O      3.059179   -1.400289   -0.728755
O      2.890659    0.436825    0.626397
H      0.316788    0.618248   -2.047976
H      0.774061    1.533938   -0.546253
H      0.577092   -1.485738   -1.002480
H      0.659736   -0.377797    1.741847
H      0.024968   -1.850342    1.157189
H     -1.375086    0.468547    1.709916
H     -1.987350   -0.953082    0.793778
H     -1.825214    0.124414   -1.233592
H     -2.623240    1.883316   -0.117814
