15

C      0.224976   -0.117648   -1.420850
C      1.179893    0.500677   -0.708481
C      1.555603    0.184243    0.686974
O      1.189687   -0.888451    1.235554
O      2.368647    1.060722    1.399270
C     -0.701282   -1.139407   -0.894093
O     -0.765684   -2.248675   -1.486090
C     -1.600844   -0.899890    0.254834
C     -1.835693    0.311600    0.760631
O     -2.706907    0.457925    1.832635
H      0.135230    0.131028   -2.471109
H      1.751249    1.274222   -1.206566
H      2.693323    1.928579    0.989645
H     -2.123979   -1.749267    0.677848
H     -1.364219    1.194342    0.349798
