9

C     -0.281891   -0.286214   -0.501686
C      0.885353   -0.029951   -0.342982
C      2.274844    0.274950   -0.154181
O      2.611932    1.317033    0.464732
O      3.247127   -0.580061   -0.654525
C     -1.673953   -0.590657   -0.690486
O     -2.011113   -1.715483   -1.141817
O     -2.650521    0.349153   -0.377842
H     -2.401777    1.261230   -0.013129
