41

C     -1.819367   -2.868590    1.000840
C     -2.099801   -1.510391    1.639293
N     -2.339297   -0.484074    0.603260
C     -3.643321   -0.223458    0.278353
C     -3.990665    0.736602   -0.683218
C     -2.960647    1.436621   -1.334059
O     -3.237649    2.313642   -2.198885
C     -1.617304    1.157260   -1.026145
C     -0.574382    1.836977   -1.685046
C      0.757815    1.551026   -1.395968
C      1.077934    0.578645   -0.443146
C      0.049568   -0.106035    0.219606
C     -1.313022    0.172869   -0.048752
N      2.452286    0.273878   -0.149422
C      2.914702   -1.117805   -0.191059
C      4.381418   -1.208718   -0.665779
N      5.187467   -0.003301   -0.387168
C      4.693320    0.752913    0.768781
C      3.290448    1.298954    0.483304
F      1.736856    2.196054   -2.078480
C     -5.427331    0.986110   -0.986816
O     -6.326366    0.347175   -0.375238
O     -5.804047    1.922880   -1.945899
H     -0.925245   -2.819842    0.345700
H     -1.638890   -3.623642    1.794551
H     -2.692872   -3.188792    0.394345
H     -1.275743   -1.213128    2.319947
H     -2.984777   -1.614970    2.306285
H     -4.435895   -0.770051    0.777410
H     -0.786275    2.587485   -2.436973
H      0.343254   -0.853196    0.939724
H      2.273181   -1.721936   -0.870274
H      2.830645   -1.552175    0.828995
H      4.393442   -1.409078   -1.760456
H      4.864108   -2.081890   -0.177094
H      5.163684    0.621941   -1.227724
H      5.383936    1.597271    0.980869
H      4.675587    0.099277    1.669051
H      2.821612    1.635791    1.433057
H      3.382760    2.175027   -0.192497
H     -6.781126    2.092674   -2.152829
