43

C      1.845089   -0.717862   -2.819535
O      1.700769   -0.454218   -1.429964
C      2.661219    0.235772   -0.683416
O      3.732425    0.608623   -1.237607
C      2.440107    0.516972    0.760847
C      3.545726    0.862855    1.563061
C      3.388110    1.123147    2.925721
C      2.126340    1.047522    3.511818
C      1.015555    0.716057    2.736880
C      1.155204    0.450352    1.365130
C     -0.073949    0.149115    0.588956
C     -0.701731    1.156004   -0.169573
C     -0.242019    2.480730   -0.239496
C     -0.916698    3.421624   -1.023186
C     -2.067222    3.074685   -1.756738
N     -2.675025    3.970640   -2.478635
C     -2.558573    1.758592   -1.707126
C     -1.913171    0.791464   -0.937320
O     -2.379238   -0.446464   -0.893032
C     -1.800795   -1.406201   -0.180042
C     -0.631840   -1.152659    0.586157
C     -0.052431   -2.215952    1.310032
C     -0.624321   -3.489882    1.281139
C     -1.780130   -3.731424    0.530476
C     -2.362897   -2.687636   -0.197688
N     -2.360901   -5.038086    0.504945
H      1.926525    0.237218   -3.380344
H      0.952616   -1.270325   -3.178496
H      2.749076   -1.337871   -2.997275
H      4.540382    0.922240    1.138873
H      4.248387    1.382829    3.529136
H      2.007676    1.250856    4.568253
H      0.039383    0.671958    3.204868
H      0.636466    2.799678    0.306345
H     -0.535388    4.435286   -1.057371
H     -2.328248    4.955564   -2.530765
H     -3.530955    3.736366   -3.031440
H     -3.444367    1.483029   -2.267695
H      0.844462   -2.074497    1.898842
H     -0.163892   -4.291619    1.844883
H     -3.255491   -2.871011   -0.783588
H     -3.222916   -5.229479   -0.052897
H     -1.933318   -5.823992    1.043852
