46

C     -4.896291   -2.457742    0.878277
C     -3.761633   -1.547573    0.484375
C     -3.942153   -0.160892    0.550533
C     -2.913411    0.716731    0.200735
C     -1.652255    0.221758   -0.237707
C     -1.479087   -1.183334   -0.283063
C     -2.512097   -2.064222    0.080787
C     -2.272871   -3.551409    0.009557
N     -0.644287    1.107057   -0.596015
C     -0.871539    2.457806   -0.487419
N      0.081954    3.378709   -0.793694
C     -0.158513    4.712216   -0.681932
N     -1.369941    5.165340   -0.257998
C     -2.379654    4.317907    0.070149
O     -3.484311    4.781769    0.458958
C     -2.179949    2.941921   -0.025896
N     -3.140392    2.050242    0.292797
O      0.840904    5.619910   -1.003647
C      0.680409    0.637492   -1.067780
C      1.593185    0.263529    0.123134
C      2.956466   -0.307793   -0.351831
C      3.847228   -0.738795    0.845131
C      5.131486   -1.467648    0.401002
O      5.931015   -0.644865   -0.407280
O      4.176482    0.354409    1.666771
O      2.724896   -1.431686   -1.167322
O      1.772830    1.381194    0.957660
H     -5.837161   -1.891549    1.046316
H     -5.088442   -3.198751    0.074455
H     -4.639232   -2.990741    1.817418
H     -4.892047    0.246000    0.878331
H     -0.541565   -1.621714   -0.586418
H     -1.209035   -3.789294   -0.203685
H     -2.894767   -3.991575   -0.797676
H     -2.535163   -4.027097    0.977586
H      0.557778   -0.209403   -1.772920
H      1.187864    1.409053   -1.686358
H      1.085200   -0.521363    0.722351
H      3.495136    0.485375   -0.925429
H      3.266230   -1.458146    1.463210
H      4.880848   -2.418174   -0.124171
H      5.715359   -1.744928    1.304360
H      5.626927   -0.777408   -1.342772
H      4.661135    1.016935    1.108332
H      2.823952   -1.140345   -2.111319
H      2.258515    2.071095    0.433842
