34

C      3.423184   -0.110016    0.001923
C      2.091452    0.134359    0.724666
O      1.768955   -0.999788    1.539800
C      1.121578   -2.027958    0.810534
C     -0.166113   -1.531460    0.133346
C     -0.172151   -0.002673    0.164143
O      1.095616    0.453573   -0.250677
C     -1.289605    0.527344   -0.758417
C     -2.487937   -0.463494   -0.790953
C     -2.527547   -1.364953    0.478482
O     -1.318344   -2.078661    0.759514
O     -2.872796   -0.580382    1.589380
O     -2.401325   -1.270033   -1.939849
O     -1.748165    1.779321   -0.269551
C     -1.103743    2.844996   -0.932531
C      2.273295    1.321551    1.635136
O      2.070166    2.489701    1.205932
O      2.722356    1.135944    2.939835
H      4.209625   -0.409216    0.728027
H      3.753837    0.810410   -0.526731
H      3.316631   -0.912195   -0.757032
H      1.815896   -2.459398    0.057031
H      0.880996   -2.853902    1.513140
H     -0.131041   -1.886063   -0.922087
H     -0.388078    0.346177    1.203995
H     -0.891489    0.597528   -1.802003
H     -3.436068    0.123668   -0.841303
H     -3.333620   -2.117524    0.323402
H     -3.022007   -1.208534    2.343440
H     -3.299454   -1.668565   -2.083282
H     -1.428457    3.798550   -0.468285
H      0.001314    2.780340   -0.830856
H     -1.394572    2.875199   -2.005609
H      2.867608    1.926153    3.556754
