19

C      2.332502   -0.807733   -0.027024
C      1.112004   -0.039734   -0.550042
C     -0.094550   -0.190400    0.406449
C     -1.307374    0.646831   -0.066489
C     -2.432461    0.580616    0.932089
O     -2.987822   -0.479742    1.173781
O     -1.767904    0.176392   -1.306864
O      0.289061    0.236293    1.692120
O      0.777272   -0.531074   -1.822685
H      2.089777   -1.885074    0.094906
H      2.666807   -0.396347    0.948770
H      3.174476   -0.712392   -0.745114
H      1.379365    1.041491   -0.617494
H     -0.385919   -1.269160    0.427197
H     -0.985083    1.710444   -0.161085
H     -2.759809    1.482988    1.438104
H     -2.326342    0.898051   -1.699018
H     -0.192149   -0.333183    2.347828
H      1.418147   -0.128267   -2.465428
