50

C      4.931290    1.140403   -1.232842
C      3.761842    0.839942   -0.288940
C      2.416150    0.686374   -1.060989
C      1.461202   -0.207919   -0.260514
C      2.115585   -1.593591   -0.003128
C      3.662983   -1.498997    0.011615
O      4.082023   -0.260430    0.559273
O      4.204240   -2.554605    0.761592
O      1.695402   -2.554230   -0.941024
O      0.243870   -0.343678   -0.978042
C     -0.862248   -0.564815   -0.117947
C     -1.530892    0.795008    0.222803
C     -3.069421    0.657610    0.361664
C     -3.459742   -0.728502    0.905528
C     -2.787870   -1.869612    0.070796
O     -1.787107   -1.379984   -0.811254
C     -3.824416   -2.630018   -0.764380
O     -4.729796   -3.292096    0.076027
O     -3.064872   -0.820492    2.250590
O     -3.680596    0.841309   -0.891063
N     -0.965056    1.343282    1.462509
C     -0.639954    2.728327    1.659183
O     -0.109780    3.083923    2.744892
C     -0.904261    3.763025    0.608582
O      1.821373    1.944530   -1.252351
H      5.865807    1.261811   -0.645391
H      4.744025    2.082669   -1.789684
H      5.074608    0.316733   -1.963222
H      3.658778    1.722620    0.380230
H      2.591437    0.200648   -2.050885
H      1.310140    0.301530    0.721042
H      1.770857   -1.935411    0.997153
H      4.057631   -1.605832   -1.024113
H      4.001877   -2.369818    1.716234
H      1.941742   -2.221354   -1.843592
H     -0.547563   -1.094266    0.817782
H     -1.322570    1.488483   -0.620518
H     -3.456582    1.430361    1.068554
H     -4.572810   -0.799988    0.861214
H     -2.324667   -2.618260    0.755718
H     -4.368423   -1.920660   -1.428384
H     -3.300162   -3.377334   -1.401496
H     -5.361981   -3.769454   -0.521991
H     -3.545540   -1.598510    2.638476
H     -3.704981    1.819422   -1.059422
H     -0.865864    0.708376    2.286804
H     -1.961811    3.705097    0.277407
H     -0.719640    4.780557    1.013172
H     -0.230170    3.599570   -0.257475
H      2.285915    2.368249   -2.020191
