42

C     -4.541939   -0.202941   -0.076034
C     -4.039754   -0.456015   -1.506403
C     -2.833407   -1.402940   -1.504088
N     -1.693745   -0.892103   -0.711086
C     -2.048184    0.126480    0.305865
C     -3.405239   -0.202486    0.963073
C     -0.921241    0.263030    1.372088
C      0.431794    0.555778    0.718288
C      0.628233    1.839935    0.175535
C      1.839883    2.183676   -0.424382
N      2.834086    1.266561   -0.498359
C      2.705571    0.001736   -0.017600
C      1.486071   -0.401822    0.597316
C      1.378988   -1.737608    1.047297
C      2.445572   -2.624449    0.911820
C      3.638789   -2.214060    0.326337
C      3.786317   -0.900868   -0.145989
C      5.081128   -0.459806   -0.797486
F      4.835235   -0.084890   -2.106015
F      6.027411   -1.470449   -0.802959
F      5.602782    0.620008   -0.107892
C      2.044060    3.558161   -0.991953
F      1.119991    3.788474   -1.994743
F      3.317542    3.682605   -1.519700
F      1.879344    4.502499    0.004933
O     -1.217090    1.255010    2.329584
H     -5.068534    0.776092   -0.053061
H     -5.282288   -0.985221    0.200419
H     -4.858731   -0.893102   -2.117607
H     -3.744654    0.507244   -1.977544
H     -2.495501   -1.556662   -2.550675
H     -3.159923   -2.393107   -1.111362
H     -1.251396   -1.715591   -0.239898
H     -2.145415    1.107596   -0.210919
H     -3.342112   -1.205806    1.439732
H     -3.646071    0.534903    1.758896
H     -0.897397   -0.677531    1.945224
H     -0.159886    2.580916    0.212923
H      0.485224   -2.139516    1.491548
H      2.344099   -3.644073    1.261733
H      4.442439   -2.933625    0.239383
H     -1.602053    2.043966    1.867835
