14

C      1.864944   -0.654613    0.323708
C      0.418334   -0.347255    0.114779
C     -0.081873    0.841232   -0.185192
C     -1.516004    0.696701   -0.297765
O     -2.327203    1.619163   -0.572755
C     -1.870709   -0.724117   -0.034148
O     -0.591082   -1.304087    0.215480
O      0.632937    2.023981   -0.362816
H      2.436818   -0.422818   -0.599206
H      2.260668   -0.051068    1.167318
H      1.989584   -1.731278    0.562715
H     -2.517923   -0.811866    0.863637
H     -2.339391   -1.188662   -0.926974
H      1.640901    2.054688   -0.268780
