19

C     -2.876567    0.509146   -0.313847
N     -1.527154   -0.031752   -0.134584
C     -1.359669   -1.368654    0.089200
C     -0.081381   -1.906887    0.231259
C      1.030887   -1.074664    0.123919
C      0.863500    0.293850   -0.137971
C     -0.445043    0.794462   -0.262323
C      2.027005    1.205963   -0.262814
O      1.870725    2.443886   -0.082550
N      3.328366    0.717099   -0.599224
H     -3.151555    0.472717   -1.388993
H     -3.618969   -0.076491    0.270727
H     -2.929571    1.561864    0.039355
H     -2.217122   -2.027063    0.165007
H      0.045786   -2.963972    0.426430
H      2.013144   -1.504303    0.264792
H     -0.596141    1.847682   -0.471595
H      4.140117    1.373503   -0.622713
H      3.483644   -0.266388   -0.910145
