19

C     -2.725069   -0.428281    0.135513
C     -2.311938    0.895791   -0.035606
C     -0.959583    1.229601    0.087688
C     -0.010469    0.238622    0.390938
C     -0.432714   -1.092049    0.551984
C     -1.786134   -1.421362    0.427725
C      1.447860    0.593992    0.493435
C      2.070981    0.638749   -0.872508
O      2.098780    1.731078   -1.500332
C      2.610511   -0.572162   -1.511556
O      2.582487   -1.680459   -0.914381
O      3.157606   -0.497997   -2.786490
H     -3.772014   -0.685191    0.038772
H     -3.039323    1.663285   -0.266554
H     -0.651236    2.258075   -0.054370
H      0.283906   -1.872865    0.773918
H     -2.106777   -2.447156    0.555850
H      1.985189   -0.137181    1.135823
H      1.557938    1.585510    0.984841
