45

C      3.119378   -0.358301   -1.291853
C      4.034722   -0.141843   -0.077414
C      3.306351    0.671946    1.015056
C      1.979731   -0.017292    1.413522
C      1.060887   -0.247442    0.188845
C      1.813842   -1.069689   -0.887864
N      0.969153   -1.258801   -2.069576
O     -0.091729   -0.967377    0.615270
C     -1.300877   -0.451281    0.071576
C     -2.006936    0.478190    1.095773
C     -3.486499    0.738342    0.688234
C     -3.755341    0.325083   -0.772771
C     -3.281524   -1.142879   -1.014582
O     -2.156697   -1.537982   -0.228812
C     -2.999077   -1.385808   -2.472208
O     -3.888968   -1.274536   -3.300573
O     -5.114404    0.477768   -1.104292
O     -3.785942    2.099600    0.867042
N     -1.978446   -0.110189    2.440629
O      1.317200    0.740296    2.394809
O      4.137556    0.778095    2.142988
N      5.265194    0.527060   -0.509159
H      3.660950   -0.977895   -2.040102
H      2.880951    0.619885   -1.766435
H      4.306527   -1.139814    0.336572
H      3.083686    1.688475    0.609709
H      2.220744   -1.007435    1.861137
H      0.823694    0.762124   -0.227021
H      2.072006   -2.069587   -0.466794
H      1.528850   -1.742138   -2.809470
H      0.210937   -1.933650   -1.820560
H     -1.109622    0.117087   -0.872980
H     -1.448428    1.442474    1.111624
H     -4.152211    0.121919    1.340476
H     -3.176564    1.013055   -1.429611
H     -4.111136   -1.824995   -0.728154
H     -2.005626   -1.673658   -2.797568
H     -5.643831   -0.090845   -0.486124
H     -4.772987    2.172376    0.945977
H     -2.454030    0.550963    3.097582
H     -0.991929   -0.166862    2.775111
H      1.092672    1.621424    1.995488
H      3.839022    1.578546    2.648761
H      5.051763    1.516619   -0.774143
H      5.936991    0.553419    0.291884
