11

C     -0.246690   -0.396681    0.960507
C      0.954174    0.180090    0.815397
N      1.478501    0.618213   -0.441142
C     -1.269990   -0.522965   -0.093656
O     -2.189151   -1.372941    0.045158
O     -1.282001    0.321222   -1.200032
H     -0.499239   -0.787047    1.939215
H      1.582503    0.280245    1.691951
H      2.375067    1.152397   -0.456404
H      1.099516    0.285707   -1.353477
H     -2.002691    0.241759   -1.907518
