22

C     -0.884840   -1.497250   -0.127061
C     -1.213527   -0.126908    0.495509
C     -0.388058    0.997432   -0.177889
C      1.128671    0.718830   -0.043003
C      1.501426   -0.640331   -0.670373
C      0.598364   -1.730921   -0.146931
O      1.050867   -2.822062    0.166931
O      2.856651   -0.941158   -0.441039
O      1.860685    1.729225   -0.689218
O     -0.693222    2.224302    0.436597
N     -2.646553    0.142815    0.350549
H     -1.386556   -2.300378    0.456412
H     -1.264305   -1.538433   -1.171265
H     -0.958933   -0.161339    1.580694
H     -0.660376    1.034276   -1.260737
H      1.391693    0.692348    1.042480
H      1.347038   -0.578134   -1.769728
H      2.991639   -0.994416    0.541765
H      1.960621    2.475741   -0.042338
H     -0.534078    2.935408   -0.237734
H     -2.879660    1.008938    0.888288
H     -3.177549   -0.627983    0.818092
