12

C     -1.165743   -0.628322    0.167333
C      0.153141    0.128970    0.347398
C      0.107273    1.455866   -0.361885
O     -0.647742    2.333480    0.025954
C      1.308828   -0.694893   -0.147512
O      1.348171   -1.090931   -1.343277
O      2.349225   -1.017960    0.714661
H     -1.373992   -0.807619   -0.909814
H     -2.005255   -0.043629    0.600767
H     -1.118975   -1.606485    0.692504
H      0.299967    0.320845    1.433163
H      0.745103    1.650680   -1.219292
