44

C     -7.111451    1.870461   -0.077836
O     -7.032392    0.488747   -0.412918
C     -5.888512   -0.308357   -0.245335
C     -5.945938   -1.662797   -0.618011
C     -4.824637   -2.480364   -0.456753
C     -3.639102   -1.963014    0.067915
C     -3.554830   -0.606441    0.432840
C     -4.689273    0.208955    0.284620
C     -2.321606   -0.011761    1.005885
C     -1.095545   -0.524061    0.826260
C      0.111271    0.102412    1.399778
O      0.015358    1.139853    2.111779
N      1.398025   -0.479791    1.148469
C      2.642095    0.114499    1.636265
C      3.005894    1.384707    0.851164
C      3.086611    1.177543   -0.673801
C      4.182742    0.199402   -1.111114
N      5.491379    0.666870   -0.660612
C      6.622652    0.060634   -0.876154
N      6.689796   -1.170761   -1.607471
N      7.825279    0.638880   -0.369602
O     -7.111780   -2.216103   -1.147456
H     -8.128967    2.242966   -0.314944
H     -6.373689    2.450371   -0.671651
H     -6.925747    2.011477    1.007904
H     -4.875158   -3.525980   -0.733431
H     -2.805051   -2.636678    0.206127
H     -4.628591    1.249333    0.576027
H     -2.427586    0.912152    1.562979
H     -0.954919   -1.408758    0.221208
H      1.454076   -1.385276    0.629553
H      2.539061    0.361369    2.715006
H      3.465554   -0.626083    1.553686
H      2.244478    2.166915    1.057397
H      3.975501    1.775614    1.227941
H      3.281029    2.162487   -1.151603
H      2.106524    0.819703   -1.056490
H      4.175764    0.138117   -2.221179
H      3.975940   -0.813270   -0.704719
H      5.842855   -1.633692   -2.003368
H      7.612489   -1.634162   -1.761397
H      8.746068    0.173208   -0.528337
H      7.798547    1.534722    0.166681
H     -7.954211   -1.670896   -1.285303
