21

C      1.304616   -0.220759   -0.766720
C     -0.015216    0.212250   -0.105402
C     -1.105837   -0.865712   -0.303308
C     -2.477352   -0.395078    0.206286
O     -2.900437    0.732213   -0.510327
O     -0.733407   -2.040291    0.372339
O      0.203112    0.431356    1.266905
C      2.334892    0.873051   -0.689278
O      2.348976    1.767055   -1.577348
C      3.299954    0.946616    0.419780
O      3.296358    0.080003    1.333543
O      4.226012    1.981352    0.465020
H      1.691624   -1.144877   -0.285017
H      1.123433   -0.459602   -1.837763
H     -0.345273    1.154996   -0.605538
H     -1.198751   -1.074410   -1.395809
H     -2.422953   -0.159238    1.292550
H     -3.216423   -1.215479    0.066100
H     -3.778477    0.989364   -0.125880
H     -1.257832   -2.782368   -0.028078
H     -0.377020    1.189558    1.538891
