42

C      2.738226   -1.121056    0.448788
C      1.407164   -1.041573   -0.325125
C      1.406424    0.210450   -1.214250
C      2.137233    0.212111   -2.342612
C      0.568904    1.449100   -0.864377
C     -0.609555    1.103938    0.116242
C     -0.062817    0.260896    1.302665
C      0.135378   -1.109439    0.595456
C     -1.082190   -1.151594   -0.305862
C     -1.500603    0.091612   -0.575026
C     -2.579683    0.418561   -1.575678
C     -1.635165   -2.387847   -0.968061
C      0.180543   -2.317201    1.562044
C     -1.032906    0.195929    2.510591
C     -1.395375    2.365235    0.548259
C      1.496713    2.567779   -0.349877
H      2.817855   -2.077566    1.004507
H      2.851100   -0.277306    1.158654
H      3.593858   -1.089292   -0.258566
H      1.372977   -1.934537   -0.991205
H      2.147776    1.076072   -3.000104
H      2.729582   -0.652612   -2.625830
H      0.106966    1.827087   -1.805629
H      0.890751    0.666322    1.692921
H     -2.327373   -0.022187   -2.562457
H     -2.686818    1.512631   -1.711506
H     -3.549119    0.007197   -1.225305
H     -2.697979   -2.521753   -0.677741
H     -1.563910   -2.290697   -2.071301
H     -1.069527   -3.292718   -0.671112
H      0.883800   -2.120151    2.398467
H     -0.823597   -2.524328    1.990226
H      0.522956   -3.232219    1.034419
H     -0.613192   -0.443195    3.314302
H     -2.025936   -0.202775    2.212706
H     -1.166927    1.202100    2.958085
H     -0.820183    2.942808    1.302291
H     -2.377394    2.092390    0.990674
H     -1.584445    3.029366   -0.321267
H      2.292555    2.777205   -1.095695
H      1.987915    2.287419    0.603372
H      0.936019    3.513835   -0.206085
