46

C     -3.427559    0.752745   -2.362864
C     -2.892502    0.299104   -1.033175
C     -3.595507   -0.352911   -0.092899
C     -2.709748   -0.630322    1.039455
C     -1.441844   -0.173209    0.747497
C     -1.478183    0.390745   -0.609844
C     -0.466841    0.842786   -1.372246
C      0.958423    0.702615   -1.032545
C      1.516124   -0.562224   -0.790646
C      2.878565   -0.688839   -0.508147
C      3.711693    0.445796   -0.486896
C      3.151994    1.705351   -0.765007
C      1.788384    1.830182   -1.045969
C      5.191638    0.325009   -0.175787
C      5.907260   -0.542264   -1.218137
C      5.414681   -0.217682    1.240712
C     -0.436847   -0.178359    1.724146
C     -0.723526   -0.737922    2.979421
C     -2.006830   -1.244543    3.257645
C     -3.018526   -1.178320    2.287398
F     -2.275862   -1.768594    4.478658
C     -5.064500   -0.679544   -0.138759
C     -5.873211    0.457254    0.410538
O     -5.784815    0.756693    1.630631
O     -6.724705    1.190752   -0.411159
H     -2.932919    1.694842   -2.675061
H     -3.239235   -0.031509   -3.124798
H     -4.514651    0.960536   -2.311406
H     -0.687646    1.300531   -2.326916
H      0.894145   -1.448768   -0.814323
H      3.281487   -1.673265   -0.309086
H      3.770335    2.594322   -0.766619
H      1.377366    2.808873   -1.262329
H      5.661496    1.333272   -0.214833
H      5.730623   -0.136167   -2.237100
H      5.547043   -1.592105   -1.182085
H      7.001844   -0.538719   -1.028202
H      4.890174    0.423950    1.980733
H      5.037313   -1.257919    1.335767
H      6.498737   -0.212210    1.483556
H      0.532468    0.263015    1.551219
H      0.042205   -0.760731    3.744081
H     -4.016862   -1.527488    2.514615
H     -5.376298   -0.915145   -1.177889
H     -5.264900   -1.590706    0.462621
H     -6.830480    0.970741   -1.393967
