45

C     -4.228930   -0.120171   -1.567280
C     -3.222805   -0.280535   -0.415531
C     -3.665996    0.415380    0.906168
C     -2.440620    0.781634    1.788189
C     -1.283614   -0.202931    1.539119
C     -0.922398   -0.261177    0.016720
O     -1.966097    0.228561   -0.818322
O      0.222688    0.542116   -0.231012
C      1.436285   -0.191675   -0.134826
C      2.541859    0.739804    0.425709
O      3.781984    0.053881    0.486133
C      4.253043   -0.234115   -0.818995
C      3.308352   -1.224538   -1.528649
C      1.867768   -0.675954   -1.541784
O      1.000231   -1.673182   -2.017762
O      3.367445   -2.505316   -0.944892
O      5.531312   -0.802448   -0.731981
C      2.193994    1.234644    1.836706
O      3.234788    2.021755    2.350306
O     -1.659040   -1.476791    1.999664
O     -2.004843    2.089923    1.510099
O     -4.481196    1.542589    0.684662
O     -5.501667   -0.570573   -1.187007
H     -3.872074   -0.691444   -2.454580
H     -4.299586    0.943475   -1.876609
H     -3.147731   -1.379899   -0.231908
H     -4.279419   -0.322026    1.469848
H     -2.750913    0.720545    2.858288
H     -0.408151    0.139233    2.133276
H     -0.746381   -1.324659   -0.271525
H      1.350646   -1.064431    0.556527
H      2.624471    1.645324   -0.221881
H      4.326296    0.699686   -1.428333
H      3.645795   -1.324305   -2.583680
H      1.853994    0.201574   -2.234053
H      0.272419   -1.215162   -2.514205
H      3.173066   -2.414838    0.023382
H      6.126211   -0.098994   -0.362108
H      2.047575    0.364493    2.511746
H      1.250180    1.825320    1.820260
H      3.182017    2.899596    1.889331
H     -0.825477   -2.011156    2.075946
H     -1.437822    2.374567    2.273985
H     -3.986591    2.164720    0.090246
H     -5.461067   -1.562503   -1.177354
