29

C      4.914460    0.895765   -0.980632
O      4.299921    0.243987    0.126172
C      2.942443   -0.104953    0.186018
C      2.470442   -0.742803    1.337629
C      1.122324   -1.111773    1.453626
C      0.225062   -0.837466    0.401919
C      0.704862   -0.205825   -0.758429
C      2.048115    0.161631   -0.865604
C     -1.199510   -1.242718    0.491622
O     -1.484476   -2.356959    1.009761
C     -2.297966   -0.385589   -0.020272
C     -3.502881   -0.968776   -0.453659
C     -4.548080   -0.168190   -0.924847
C     -4.406277    1.220799   -0.959462
C     -3.220638    1.812542   -0.518301
C     -2.172279    1.016721   -0.046459
O      0.673303   -1.736506    2.617451
H      5.990066    1.050880   -0.758465
H      4.440453    1.885248   -1.152351
H      4.826634    0.266297   -1.891280
H      3.156806   -0.950355    2.149163
H      0.040806   -0.007788   -1.590827
H      2.381528    0.647044   -1.772610
H     -3.631900   -2.043984   -0.438235
H     -5.468940   -0.625523   -1.263096
H     -5.216868    1.838774   -1.323494
H     -3.115473    2.889644   -0.536458
H     -1.271543    1.499131    0.311180
H      1.299602   -1.939258    3.387853
