50

C      5.929578    2.059956    0.068078
C      5.895013    0.797181    0.928263
C      4.646623    0.718992    1.822955
C      3.346021    0.524950    1.038545
O      3.419109   -0.664223    0.255055
C      2.398286   -1.133038   -0.587316
C      2.615421   -2.312499   -1.323276
C      1.610850   -2.800601   -2.168741
C      0.395011   -2.126200   -2.288593
C      0.161016   -0.947570   -1.564017
C      1.168094   -0.456731   -0.713751
C     -1.131857   -0.238888   -1.692191
O     -1.332475    0.828622   -1.051485
O     -2.126158   -0.752813   -2.534224
C     -3.448329   -0.222363   -2.626965
C     -4.304197   -0.684597   -1.440657
N     -4.053349    0.156802   -0.246690
C     -4.309191   -0.615280    0.991567
C     -3.728665    0.083242    2.220617
C     -4.847942    1.414055   -0.293504
C     -3.934048    2.622180   -0.115347
N      3.855888   -3.021146   -1.218396
H      5.132857    2.031000   -0.703789
H      5.802678    2.964902    0.699521
H      6.909106    2.125797   -0.450678
H      5.960147   -0.099774    0.275183
H      6.793262    0.797595    1.583000
H      4.568999    1.641190    2.439036
H      4.766892   -0.137579    2.521365
H      2.506381    0.439168    1.761887
H      3.159547    1.402958    0.384653
H      1.771122   -3.707973   -2.737635
H     -0.361306   -2.529889   -2.949978
H      0.989938    0.449290   -0.151053
H     -3.423055    0.884797   -2.714265
H     -3.906408   -0.615718   -3.558887
H     -5.382763   -0.670398   -1.718605
H     -4.051764   -1.752656   -1.254197
H     -5.398672   -0.796320    1.132088
H     -3.807876   -1.607165    0.935999
H     -4.299150    1.004547    2.458454
H     -3.792267   -0.594990    3.097684
H     -2.662137    0.339912    2.046028
H     -5.639622    1.441746    0.488498
H     -5.375814    1.546418   -1.265045
H     -3.234294    2.701878   -0.972643
H     -3.348738    2.542192    0.823085
H     -4.545022    3.548498   -0.074367
H      4.627112   -2.681974   -0.601638
H      4.016149   -3.897481   -1.763655
