47

C     -1.352530   -1.224985    2.994050
C     -0.595389   -0.924766    1.683303
C     -1.518221   -0.243962    0.637915
C     -1.485517   -0.763873   -0.676006
C     -2.372651   -0.320152   -1.660196
C     -3.308822    0.678127   -1.366300
C     -3.316646    1.251047   -0.085259
C     -2.410815    0.837729    0.904824
C     -2.441460    1.602106    2.163390
O     -1.385291    2.042026    2.683742
O     -4.203084    1.085301   -2.369891
C     -5.201219    2.087891   -2.207533
O     -2.308579   -0.889040   -2.933263
O     -0.553659   -1.746164   -1.005658
C      0.446019   -2.126130   -0.072354
O     -0.149321   -2.193405    1.217908
C      1.603890   -1.109171   -0.120998
C      2.490131   -1.022408   -1.222470
C      3.571397   -0.108217   -1.186031
C      3.704677    0.782485   -0.113541
C      2.757752    0.769884    0.921013
C      1.704224   -0.151709    0.907918
C      0.648803   -0.105466    1.932584
O      0.808620    0.559635    2.992857
O      4.788755    1.675497   -0.119946
C      5.051712    2.636002    0.898034
O      4.537859   -0.058134   -2.194468
O      2.255792   -1.817456   -2.346470
C      0.921231   -3.549197   -0.401689
H     -1.550392   -0.324257    3.603799
H     -0.751076   -1.911752    3.628507
H     -2.319043   -1.725788    2.770893
H     -4.010111    2.051182    0.140916
H     -3.393502    1.872878    2.601643
H     -4.727698    3.062432   -1.964229
H     -5.764655    2.194962   -3.156945
H     -5.910345    1.794674   -1.404782
H     -2.925212   -0.605628   -3.685149
H      2.826306    1.485157    1.729396
H      5.974001    3.195101    0.638991
H      5.206663    2.126998    1.872804
H      4.209135    3.355676    0.970898
H      4.603519   -0.725748   -2.949411
H      2.760424   -1.733800   -3.217072
H      1.862672   -3.781432    0.140954
H      0.150257   -4.285512   -0.087780
H      1.071397   -3.698638   -1.488902
