12

C      0.414188   -1.379759    0.014527
C      1.370099   -0.445114   -0.014203
C      1.008151    0.985723   -0.030309
O      1.908117    1.865671   -0.057370
C     -0.414188    1.379758   -0.014532
C     -1.370099    0.445114    0.014204
C     -1.008152   -0.985724    0.030307
O     -1.908120   -1.865670    0.057372
H      0.684883   -2.428213    0.026241
H      2.412202   -0.739318   -0.025672
H     -0.684879    2.428211   -0.026245
H     -2.412201    0.739321    0.025679
