24

C      4.104704    0.780429    0.687517
O      3.340969   -0.323238    0.212073
C      1.995030   -0.246259   -0.175666
C      1.364223   -1.412544   -0.624056
C      0.024456   -1.388079   -1.021675
C     -0.703707   -0.189227   -0.983558
C     -0.077718    0.980267   -0.525111
C      1.262402    0.955301   -0.127270
C     -2.156390   -0.170428   -1.384099
C     -3.062723   -0.600125   -0.225975
N     -2.974740    0.347011    0.882258
H      5.133397    0.436395    0.919435
H      3.649050    1.189167    1.614095
H      4.160841    1.569811   -0.091563
H      1.915222   -2.343769   -0.661759
H     -0.446174   -2.303710   -1.358063
H     -0.628137    1.911649   -0.473779
H      1.717543    1.873368    0.218298
H     -2.313284   -0.862498   -2.240046
H     -2.450210    0.843984   -1.732799
H     -2.764017   -1.612364    0.125554
H     -4.113962   -0.658569   -0.586469
H     -3.562028   -0.023094    1.664214
H     -3.414746    1.246522    0.579633
