31

C      5.162452   -0.819611    1.024253
C      3.834011   -0.208587    0.689753
C      2.658188   -0.718086    1.259050
C      1.416260   -0.173531    0.919924
C      1.328202    0.874984   -0.013387
C      2.509300    1.381467   -0.581912
C      3.750794    0.835864   -0.242208
C      0.018406    1.473395   -0.369191
O     -0.032764    2.702560   -0.648648
C     -1.233669    0.678789   -0.408376
C     -2.456401    1.280439   -0.072740
C     -3.655867    0.548744   -0.105292
C     -3.631930   -0.798658   -0.532100
C     -2.412530   -1.400705   -0.869460
C     -1.222722   -0.665609   -0.810675
O     -2.393653   -2.733085   -1.279382
O     -4.800818   -1.551031   -0.666022
N     -4.875337    1.175341    0.322422
O     -5.065839    2.389308    0.101909
O     -5.727769    0.514349    1.176303
H      5.972495   -0.063411    0.946391
H      5.374069   -1.650854    0.319777
H      5.161549   -1.215507    2.062200
H      2.702771   -1.533097    1.970997
H      0.526552   -0.565206    1.396597
H      2.470344    2.190155   -1.301397
H      4.647236    1.229285   -0.705588
H     -2.472390    2.313694    0.253083
H     -0.294222   -1.140483   -1.102402
H     -1.530129   -3.198143   -1.534371
H     -5.726588   -1.152769   -0.583446
