20

C      0.289288    0.177226   -1.114145
C     -1.052329    0.458838   -1.387574
C     -2.059007    0.096421   -0.473826
C     -1.692856   -0.549991    0.719684
C     -0.350840   -0.831034    0.992060
C      0.648501   -0.479219    0.072520
C      2.094141   -0.753401    0.382315
C      2.678595    0.384289    1.161736
O      2.696039    0.340097    2.420011
O      3.165696    1.513217    0.509533
N     -3.441673    0.384799   -0.751145
O     -3.772753    0.959851   -1.808866
O     -4.423501    0.030124    0.145592
H      1.048384    0.471812   -1.828276
H     -1.301793    0.962613   -2.312590
H     -2.443281   -0.836211    1.445086
H     -0.090173   -1.322387    1.921468
H      2.671497   -0.894130   -0.557006
H      2.188734   -1.696357    0.964247
H      3.147331    1.583443   -0.500824
