40

C     -4.213248    0.408819    1.833120
C     -3.412673    0.115341    0.575968
C     -1.987344    0.137676    0.613056
C     -1.297014    0.580558    1.759732
C      0.090085    0.629631    1.787426
C      0.841782    0.181112    0.701907
C      0.194121   -0.330937   -0.445202
C     -1.232993   -0.261274   -0.528198
C     -1.924577   -0.519823   -1.726075
C     -3.316928   -0.468447   -1.792365
C     -4.074410   -0.150875   -0.652198
C     -5.583059   -0.098447   -0.758235
O     -3.951051   -0.732886   -3.008224
C      1.064938   -0.963739   -1.480046
O      0.602138   -1.753829   -2.345004
C      2.520342   -0.763032   -1.417800
O      3.244032   -1.162849   -2.369735
C      3.124101   -0.130718   -0.222242
C      2.320969    0.273371    0.778877
C      4.635874    0.020357   -0.113223
C      5.197841   -0.822029    1.038920
C      5.043471    1.492813    0.027854
H     -4.193152    1.498797    2.042639
H     -3.790753   -0.146475    2.696469
H     -5.268258    0.080163    1.770780
H     -1.816095    0.943705    2.635412
H      0.582011    1.014674    2.672901
H     -1.404824   -0.697606   -2.652187
H     -6.025490   -0.965178   -0.223892
H     -5.963956    0.848048   -0.319926
H     -5.941530   -0.125380   -1.807413
H     -3.429940   -0.965455   -3.845751
H      2.758104    0.707859    1.669734
H      5.116805   -0.351532   -1.043416
H      4.833859   -0.453628    2.021333
H      4.892898   -1.883503    0.917565
H      6.307926   -0.777520    1.035927
H      4.687666    1.919967    0.989110
H      4.618322    2.086926   -0.809233
H      6.150011    1.585343   -0.008366
