43

C     -3.404028   -2.469342   -1.766541
C     -2.905735   -1.311478   -0.918436
C     -1.507580   -1.091926   -0.758350
C     -0.565320   -2.029435   -1.228893
C      0.796748   -1.828489   -1.050639
C      1.273437   -0.659665   -0.458275
C      0.367796    0.336397   -0.028560
C     -1.037732    0.071882   -0.086839
C     -1.978769    0.899039    0.553564
C     -3.356487    0.649924    0.474145
C     -3.827115   -0.459024   -0.254076
C     -5.317132   -0.721613   -0.319324
O     -4.286792    1.490707    1.113259
C     -3.959654    2.653053    1.868925
C      0.959455    1.634742    0.411602
O      0.277551    2.692893    0.459998
C      2.404055    1.715693    0.673721
O      2.883711    2.759059    1.194346
C      3.284699    0.589348    0.286662
C      2.738145   -0.503093   -0.277847
C      4.791426    0.687615    0.487178
C      5.307780   -0.423222    1.411079
C      5.533253    0.679908   -0.855377
H     -4.456551   -2.354310   -2.089754
H     -3.305514   -3.418236   -1.198920
H     -2.824106   -2.535024   -2.710692
H     -0.865092   -2.957573   -1.694562
H      1.486949   -2.592106   -1.389481
H     -1.653530    1.704503    1.185153
H     -5.527891   -1.790445   -0.104457
H     -5.891608   -0.137685    0.428130
H     -5.698642   -0.458805   -1.328200
H     -4.896270    3.124424    2.230605
H     -3.418174    3.383952    1.231796
H     -3.341282    2.375748    2.748567
H      3.379641   -1.317074   -0.593121
H      5.040554    1.650390    0.983022
H      4.751132   -0.407556    2.372502
H      6.384881   -0.263286    1.631489
H      5.190797   -1.423834    0.944003
H      6.618052    0.854608   -0.691149
H      5.408814   -0.292016   -1.378079
H      5.146126    1.491351   -1.508172
