31

C     -4.506173    1.055480   -0.638705
C     -4.225076   -0.286130    0.037493
C     -2.927932   -0.942360   -0.459876
C     -1.670450   -0.204277    0.022766
C     -0.399727   -0.957037   -0.390095
C      0.857786   -0.217444    0.082668
C      2.129017   -0.968397   -0.340921
C      3.408742   -0.331568    0.223637
C      3.745408    1.008539   -0.443040
C      5.061639    1.520463    0.050585
O      6.125228    1.219713   -0.552592
O      5.119432    2.289625    1.205899
H     -3.754772    1.813756   -0.336200
H     -5.508199    1.420915   -0.329901
H     -4.496476    0.943887   -1.743787
H     -4.185912   -0.147115    1.139781
H     -5.071931   -0.971224   -0.184304
H     -2.902509   -1.985294   -0.074458
H     -2.934229   -0.993933   -1.570914
H     -1.698075   -0.111817    1.130874
H     -1.643471    0.815047   -0.418286
H     -0.373959   -1.054900   -1.498008
H     -0.415629   -1.976632    0.054550
H      0.861202    0.802027   -0.358470
H      0.833934   -0.125524    1.190895
H      2.189470   -1.015597   -1.450497
H      2.071313   -2.012703    0.037391
H      4.249100   -1.039490    0.048994
H      3.308090   -0.193631    1.322904
H      2.964560    1.761743   -0.208334
H      3.789603    0.883879   -1.547108
