25

C      3.091920   -0.663926   -0.891177
C      1.898158   -0.288201   -0.019081
C      0.654468   -0.013352   -0.869891
N     -0.477374    0.363166   -0.012853
C     -1.413117   -0.481011    0.485568
C     -2.316912    0.209670    1.268926
C     -1.905905    1.524923    1.274145
C     -0.770893    1.591191    0.488300
C     -0.017318    2.841542    0.270908
O      1.051340    2.869910   -0.391980
C     -1.502043   -1.951909    0.189861
O     -2.007563   -2.155267   -1.100773
H      2.868486   -1.581320   -1.476452
H      3.975376   -0.859494   -0.247631
H      3.336448    0.166082   -1.587863
H      2.155175    0.613391    0.576723
H      1.688348   -1.121037    0.686240
H      0.402195   -0.920615   -1.459157
H      0.854618    0.783682   -1.615193
H     -3.177113   -0.198372    1.783221
H     -2.380070    2.343049    1.800607
H     -0.387604    3.762495    0.702239
H     -2.146237   -2.461625    0.941920
H     -0.493235   -2.408278    0.260513
H     -2.981146   -1.964693   -1.057119
