43

C      4.179518    3.746300   -0.756525
O      4.887948    2.618910   -1.262547
C      4.436176    1.291407   -1.183717
C      5.235026    0.269754   -1.727325
C      4.812564   -1.060442   -1.657421
C      3.596607   -1.387916   -1.055055
C      2.774328   -0.379531   -0.518085
C      3.209490    0.955426   -0.576506
C      1.478516   -0.675502    0.142580
C      0.772308   -1.794469   -0.068687
C     -0.518243   -2.033490    0.594325
O     -1.160037   -3.084026    0.324131
O     -1.019406   -1.107639    1.518914
C     -2.320950   -1.178285    2.107184
C     -3.337051   -0.321105    1.307725
C     -3.620858   -0.886612   -0.116160
C     -4.724012   -0.091424   -0.870462
C     -4.265122    1.284235   -1.276081
O     -4.880764    2.303309   -0.865777
O     -3.167622    1.438849   -2.115212
O     -5.156065   -0.794069   -2.009413
O     -3.990696   -2.242262   -0.035627
O     -2.907475    1.018175    1.250445
C     -2.236406   -0.681468    3.521064
O     -2.991576   -1.162708    4.406340
O     -1.361534    0.346361    3.852161
O      6.455647    0.557057   -2.338444
H      3.195901    3.839239   -1.264782
H      4.769467    4.664354   -0.956007
H      4.037097    3.647144    0.340675
H      5.435037   -1.846716   -2.066561
H      3.322316   -2.431844   -0.994119
H      2.583042    1.730064   -0.153767
H      1.070086    0.085842    0.797749
H      1.119793   -2.545216   -0.765159
H     -2.666024   -2.235349    2.150314
H     -4.299239   -0.337077    1.867233
H     -2.685027   -0.834724   -0.713858
H     -5.602511    0.012488   -0.195628
H     -4.361800   -0.953634   -2.585095
H     -4.828521   -2.293132    0.495910
H     -2.081812    1.047312    0.700079
H      6.811883    1.502414   -2.415668
