38

C      3.850252   -0.054071    0.539444
C      2.813584   -0.432797    1.305536
O      1.514955   -0.460079    0.776349
C      1.235179   -0.286362   -0.616408
C      2.220582    0.734259   -1.207475
C      3.668073    0.287789   -0.919744
O      4.548893    1.319605   -1.279132
O      2.008669    0.903650   -2.587465
O     -0.085137    0.189409   -0.796716
C     -1.050670   -0.752635   -0.345594
C     -2.220521   -0.822310   -1.350235
C     -3.249982    0.279496   -1.049258
C     -3.791854    0.120314    0.396517
O     -2.950908   -0.648990    1.255191
C     -1.562970   -0.391471    1.088380
C     -1.191082    0.988098    1.593276
O     -0.881222    1.145179    2.803723
O     -1.235577    2.098494    0.758410
O     -4.045454    1.381129    0.958528
O     -4.299885    0.266293   -1.985882
O     -1.762360   -0.764584   -2.680242
C      3.002665   -0.794638    2.720389
O      2.008752   -1.127846    3.417571
O      4.265340   -0.774139    3.302407
H      4.855457   -0.047277    0.943822
H      1.380581   -1.257536   -1.144865
H      2.046083    1.714607   -0.709866
H      3.890011   -0.626810   -1.518121
H      5.448459    0.909867   -1.375246
H      2.147263    0.023248   -3.025423
H     -0.639990   -1.792585   -0.310919
H     -2.727213   -1.805371   -1.218834
H     -2.740274    1.262876   -1.140763
H     -4.759032   -0.428519    0.337062
H     -1.041558   -1.099160    1.770666
H     -4.490359    1.217150    1.830669
H     -4.701902   -0.641810   -1.979005
H     -1.476848    0.167528   -2.868144
