37

C     -1.956010    0.955264   -0.792135
C     -2.434969   -0.458289   -0.417604
C     -3.961877   -0.629401   -0.575487
C     -4.324208   -2.080767   -0.403634
O     -4.732785   -2.752340   -1.387446
O     -4.190414   -2.694050    0.836493
N     -4.703625    0.191210    0.391851
C     -0.424440    1.055647   -0.796806
N      0.128790    0.948031    0.558706
C      1.408384    0.846229    0.794286
N      1.871527    0.743597    2.143876
N      2.357675    0.865028   -0.287009
C      3.166661   -0.299688   -0.674568
C      4.405395   -0.469343    0.222598
C      5.277726    0.748211    0.183460
O      6.075661    0.923686   -0.774676
O      5.182006    1.708524    1.182362
C      2.329544   -1.551423   -0.703082
O      2.032708   -2.151429    0.364392
O      1.836880   -2.025689   -1.912312
H     -2.364080    1.705658   -0.082081
H     -2.325054    1.207861   -1.810057
H     -1.926290   -1.190120   -1.084515
H     -2.138278   -0.693025    0.627818
H     -4.250714   -0.316948   -1.605371
H     -4.596135    1.204751    0.161602
H     -4.362370    0.018238    1.365751
H     -5.723957   -0.035802    0.342771
H     -0.007605    0.254683   -1.446349
H     -0.135322    2.037900   -1.229487
H     -0.529379    0.945090    1.371479
H      1.197480    0.647726    2.935676
H      2.881996    0.856633    2.371648
H      2.286969    1.645597   -0.978285
H      3.536558   -0.132293   -1.711499
H      4.998296   -1.339490   -0.135909
H      4.113256   -0.689469    1.269339
