8

C      0.069595    0.956748    0.032761
C      0.954333   -0.101618   -0.014293
C     -0.104954   -0.986454   -0.033407
O     -0.217074   -2.239473   -0.076075
C     -0.989867    0.072119    0.013657
O     -2.243452    0.184573    0.031696
O      2.337266   -0.224793   -0.034158
O      0.194153    2.338898    0.079819
