38

C      4.107842   -0.345835    0.349055
C      3.333325   -0.671802   -0.698525
O      1.973828   -0.328287   -0.707997
C      1.283740    0.136610    0.454829
C      2.200374    1.067529    1.261239
C      3.547830    0.365959    1.559176
O      3.426410   -0.521641    2.642796
O      2.428547    2.242017    0.523558
O      0.122241    0.846888    0.069217
C     -0.916429   -0.031801   -0.337584
C     -1.693175    0.607219   -1.501039
C     -2.919661   -0.252144   -1.850681
C     -3.742008   -0.524719   -0.577614
O     -2.956802   -1.182817    0.408355
C     -1.866285   -0.381564    0.846327
C     -2.337372    0.792119    1.682142
O     -1.628510    1.824463    1.814411
O     -3.521673    0.691630    2.402459
O     -4.837871   -1.335422   -0.904491
O     -2.492209   -1.462647   -2.424023
O     -2.091815    1.910557   -1.156462
C      3.891535   -1.367496   -1.870436
O      3.145842   -1.644211   -2.846392
O      5.234066   -1.726966   -1.917117
H      5.153811   -0.627311    0.368375
H      1.026083   -0.734704    1.099257
H      1.691028    1.320973    2.221212
H      4.283374    1.144021    1.857544
H      2.883302   -1.297502    2.346475
H      2.739032    2.930302    1.168375
H     -0.511324   -0.996022   -0.733433
H     -1.015593    0.652946   -2.386392
H     -3.548300    0.308919   -2.582305
H     -4.136918    0.444970   -0.193081
H     -1.278203   -1.014099    1.543763
H     -5.397070   -1.394358   -0.086065
H     -3.253447   -1.818209   -2.952833
H     -2.327546    2.372435   -2.002967
