43

C      0.678892   -2.656908    0.479421
C     -0.185756   -1.454691    0.117105
C      0.569275   -0.821596   -0.981852
C     -0.136629   -1.343308   -2.228454
O     -1.478963   -1.611546   -1.903868
C     -1.542386   -1.813572   -0.507393
C     -2.643640   -0.958984    0.077775
C     -2.792857    0.391317   -0.319683
C     -3.796826    1.144263    0.281465
C     -4.615324    0.625204    1.230293
C     -4.499384   -0.691457    1.663162
C     -3.496317   -1.488400    1.082150
O     -5.508206    1.593014    1.648128
C     -5.232628    2.795456    0.915950
O     -4.133041    2.465098    0.055931
C      2.006305   -1.334661   -0.804347
O      2.018199   -2.352945    0.174494
C      2.927447   -0.212325   -0.379641
C      3.760045    0.412236   -1.323417
C      4.587861    1.477244   -0.950022
C      4.580446    1.936377    0.377958
C      3.739567    1.327000    1.318625
C      2.914263    0.264637    0.942577
O      5.403713    2.995717    0.756376
O      5.407479    2.067262   -1.911676
H      0.585223   -2.881572    1.562960
H      0.388440   -3.565221   -0.093628
H     -0.264498   -0.766745    0.991073
H      0.482495    0.288975   -0.933278
H     -0.093632   -0.583566   -3.037312
H      0.325152   -2.282873   -2.604878
H     -1.787567   -2.884096   -0.327946
H     -2.147944    0.838060   -1.065418
H     -5.156208   -1.087294    2.426453
H     -3.381088   -2.512580    1.414099
H     -4.942934    3.610106    1.612318
H     -6.117151    3.087305    0.311836
H      2.388375   -1.770912   -1.754200
H      3.766386    0.074369   -2.352617
H      3.721754    1.679289    2.342148
H      2.262914   -0.183819    1.682205
H      5.415314    3.345222    1.707491
H      6.023434    2.840920   -1.692365
