21

C     -1.252658   -0.279497   -0.051443
C      0.117861   -0.774957   -0.548242
C      1.143075   -0.652552    0.593203
O      1.170847    0.672869    1.122289
C      0.039118    1.490696    1.196214
O      0.090252    2.542809    1.886474
C     -1.182709    1.203967    0.359557
O     -2.344565    1.538337    1.074938
C      2.519161   -1.022774    0.118461
O      3.018903   -2.131321    0.445693
O      3.241998   -0.165526   -0.707113
O      0.024398   -2.120862   -0.942645
O     -2.202674   -0.440631   -1.073845
H     -1.547477   -0.894432    0.833265
H      0.449333   -0.143035   -1.407589
H      0.846757   -1.342892    1.415030
H     -1.112384    1.820187   -0.567858
H     -2.470388    2.519038    0.982057
H      2.862509    0.727114   -0.999223
H     -0.314493   -2.126267   -1.875779
H     -3.096866   -0.420272   -0.642794
