20

C     -1.061066    0.815290   -0.259046
C      0.387474    0.499939   -0.737741
C      1.136851   -0.553023    0.140501
O      0.528052   -0.742556    1.417282
C     -0.853083   -0.863618    1.551865
O     -1.343379   -1.355410    2.601957
C     -1.743455   -0.370108    0.451936
O     -2.071070   -1.401582   -0.446312
C      2.573171   -0.168379    0.332941
O      3.464943   -0.654531   -0.411451
O      2.920839    0.766385    1.300477
O      0.336754    0.048211   -2.067855
O     -1.036717    1.908923    0.625584
H     -1.690292    1.084161   -1.141263
H      0.948928    1.465448   -0.723328
H      1.113711   -1.537121   -0.379455
H     -2.692506   -0.004225    0.901968
H     -1.228878   -1.790261   -0.796465
H      1.256947    0.123781   -2.433700
H     -0.947225    2.728675    0.072104
