18

C      0.148947    1.276120   -0.152082
C      1.476653    1.153458   -0.573297
C      2.148075   -0.066138   -0.438724
C      1.484057   -1.167698    0.118064
C      0.156389   -1.047707    0.540083
C     -0.517305    0.178809    0.418066
C     -1.954793    0.300565    0.841801
C     -2.857885   -0.048198   -0.297349
O     -3.239515    0.844171   -1.099563
O     -3.239378   -1.367940   -0.503254
O      3.470677   -0.173753   -0.862518
H     -0.359919    2.224768   -0.270935
H      1.983262    2.005967   -1.007607
H      1.994258   -2.116924    0.221126
H     -0.346707   -1.909749    0.960553
H     -2.162123   -0.377920    1.697522
H     -2.168799    1.335617    1.187503
H      3.984107   -1.043447   -0.779391
