44

C     -5.449696   -1.808075    0.446912
C     -4.189965   -0.950636    0.598330
C     -3.663339   -0.368749   -0.744934
C     -2.371708    0.405883   -0.475731
C     -2.421477    1.791463   -0.155531
C     -3.757841    2.485533   -0.086707
O     -4.656687    1.938812   -1.045390
C     -4.690892    0.573872   -1.336586
O     -5.589196    0.134190   -2.103241
C     -1.229809    2.475144    0.172530
O     -1.249164    3.697392    0.483601
N     -0.052764    1.795093    0.155992
C      1.283688    2.323071    0.463463
C      2.149299    1.107450    0.303461
C      3.526276    0.970959    0.443843
C      4.101975   -0.304777    0.227725
C      3.246606   -1.383006   -0.168360
C      3.789087   -2.639740   -0.446545
C      5.163960   -2.847422   -0.349783
C      6.008731   -1.808244    0.043445
C      5.494530   -0.537459    0.354061
N      6.392912    0.484255    0.816145
O      7.536423    0.578280    0.324191
O      6.103661    1.188363    1.962185
N      1.900171   -1.191876   -0.295364
C      1.378432    0.032878   -0.050703
C      0.011965    0.479771   -0.139889
C     -1.125517   -0.257136   -0.450147
O     -3.424338   -1.388358   -1.693051
H     -5.280974   -2.636289   -0.272549
H     -6.306160   -1.190478    0.105649
H     -5.714420   -2.248955    1.431028
H     -3.398374   -1.578612    1.063796
H     -4.409525   -0.124723    1.309732
H     -3.656824    3.573328   -0.284200
H     -4.181774    2.352261    0.930839
H      1.324898    2.699487    1.507877
H      1.570430    3.109360   -0.267050
H      4.117311    1.841533    0.689080
H      3.145707   -3.456637   -0.749796
H      5.577799   -3.822335   -0.573261
H      7.070411   -2.002160    0.131555
H     -1.034241   -1.315334   -0.651597
H     -3.039584   -2.177380   -1.229939
