24

C     -4.465343   -0.132439   -0.253099
C     -3.232317    0.249759   -0.783887
C     -2.041955   -0.296005   -0.273936
C     -2.134805   -1.243908    0.761465
N     -3.349517   -1.601210    1.258084
C     -4.504108   -1.067235    0.781083
C     -0.732437    0.106589   -0.841710
O     -0.685011    0.574732   -2.012579
N      0.478285   -0.009795   -0.077675
C      1.785196    0.236693   -0.687465
C      2.908094    0.053329    0.330338
O      4.163399    0.294457   -0.296513
N      5.356063    0.198462    0.392737
O      5.376942   -0.106556    1.603550
O      6.537774    0.442496   -0.264690
H     -5.382550    0.292501   -0.639965
H     -3.208716    0.979158   -1.584102
H     -1.251985   -1.722174    1.161787
H     -5.452780   -1.373297    1.201364
H      0.423443   -0.230003    0.942109
H      1.817971    1.274844   -1.083762
H      1.937031   -0.473081   -1.529467
H      2.886296   -0.985260    0.726349
H      2.771031    0.768980    1.169981
