26

C     -5.102330   -0.616306   -0.228778
C     -3.800522    0.103387    0.084683
O     -2.699784   -0.744993   -0.231307
C     -1.352781   -0.390761   -0.064974
C     -0.371490   -1.324389   -0.415715
C      0.985092   -1.019409   -0.271223
C      1.382167    0.237998    0.216531
C      0.398760    1.165606    0.589372
C     -0.957854    0.860717    0.443789
N      2.769641    0.570085    0.398202
C      3.828371    0.103785   -0.452471
O      3.571928   -0.431371   -1.564665
C      5.251642    0.341651   -0.065821
H     -5.141924   -0.876029   -1.307888
H     -5.176066   -1.546578    0.373433
H     -5.962906    0.041336    0.016027
H     -3.744698    1.034042   -0.520587
H     -3.778966    0.361479    1.165650
H     -0.662671   -2.296014   -0.794494
H      1.717990   -1.776141   -0.516505
H      0.685611    2.132169    0.984543
H     -1.689668    1.603097    0.731383
H      3.016362    1.258514    1.145266
H      5.538018    1.380340   -0.331652
H      5.920252   -0.368657   -0.596912
H      5.375828    0.196446    1.027797
