13

C      0.736939   -0.368396   -0.671754
C     -0.454977   -0.768366    0.209433
N     -1.417544    0.325539    0.352730
C      1.583446    0.678505   -0.016167
O      2.405333    0.357261    0.882051
O      1.439805    2.013622   -0.371996
H      0.374415    0.002995   -1.654518
H      1.361850   -1.267298   -0.863590
H     -0.094930   -1.087124    1.213157
H     -0.963022   -1.640740   -0.257997
H     -0.984399    1.125561    0.867847
H     -2.241363   -0.015617    0.898749
H     -1.745554    0.644059   -0.587946
