27

C     -4.124255   -0.560579    0.072692
C     -4.009281    0.412968   -0.922691
C     -2.747731    0.876327   -1.309105
C     -1.586819    0.367977   -0.700998
C     -1.714125   -0.613649    0.301820
C     -2.977754   -1.073307    0.684271
C     -0.227994    0.877536   -1.127993
C      0.555402    1.424845    0.035228
O      0.205035    2.409696    0.738065
C      1.784929    0.666418    0.223269
C      2.789259    0.825679    1.178663
C      3.885801   -0.052725    1.142832
C      3.956778   -1.063660    0.162270
C      2.931692   -1.203013   -0.789076
C      1.854080   -0.318523   -0.732076
C      0.672351   -0.240930   -1.580489
O      0.444023   -0.994419   -2.563744
H     -5.101788   -0.917609    0.370040
H     -4.898573    0.809244   -1.395598
H     -2.678125    1.631243   -2.082365
H     -0.835609   -1.021649    0.786034
H     -3.067979   -1.827515    1.455310
H     -0.298987    1.647453   -1.926903
H      2.727097    1.603607    1.928512
H      4.679450    0.047277    1.871743
H      4.804647   -1.735899    0.142141
H      2.978476   -1.976794   -1.544316
