50

C      0.932473   -0.492209   -2.453129
C      0.675920   -0.453497   -0.934470
C      1.717787   -1.314488   -0.175366
C      3.104615   -0.726909   -0.263875
C      3.456831    0.370039    0.538849
C      4.741362    0.941547    0.447007
C      5.668544    0.405493   -0.458257
C      5.315866   -0.685843   -1.263027
C      4.041470   -1.247631   -1.168719
O      6.941311    0.965800   -0.553551
O      5.130257    2.037525    1.233129
C      4.292429    2.682763    2.186724
C     -0.801410   -0.836436   -0.598115
C     -1.101631   -2.331714   -0.820620
C     -1.186547   -0.401894    0.838793
C     -2.680812   -0.412533    1.051086
C     -3.470585    0.637250    0.555735
C     -4.869295    0.626533    0.728201
C     -5.469469   -0.452906    1.402632
C     -4.681039   -1.499479    1.890706
C     -3.296551   -1.482939    1.715660
O     -6.849855   -0.503762    1.596114
O     -5.685424    1.661928    0.245124
C     -5.208597    2.806070   -0.455753
H      0.964291   -1.535331   -2.830522
H      0.141876    0.065538   -2.998365
H      1.902642   -0.007102   -2.690460
H      0.815673    0.607646   -0.627654
H      1.448054   -1.389057    0.898112
H      1.718688   -2.352526   -0.574020
H      2.724990    0.771206    1.227517
H      6.029569   -1.098029   -1.964975
H      3.783713   -2.085508   -1.804651
H      7.633980    0.602447   -1.197836
H      3.989820    1.964101    2.977411
H      4.854391    3.514322    2.658976
H      3.394129    3.100620    1.684968
H     -1.453387   -0.264176   -1.296181
H     -0.576629   -2.959872   -0.070569
H     -2.191845   -2.520471   -0.731130
H     -0.798258   -2.651949   -1.837562
H     -0.817354    0.628791    1.033700
H     -0.696158   -1.059455    1.588167
H     -2.987454    1.454479    0.036816
H     -5.144999   -2.330911    2.406109
H     -2.705150   -2.307406    2.094369
H     -7.468957    0.225757    1.263772
H     -4.510154    3.383531    0.186060
H     -6.069080    3.455234   -0.717398
H     -4.700042    2.495413   -1.392841
