26

C     -1.624970   -0.735579   -1.302315
C     -1.701489   -0.106441    0.103073
C     -1.683477    1.429151   -0.032635
C     -0.529318   -0.602762    1.003286
C      0.847692   -0.259133    0.480869
C      1.524970   -1.144240   -0.375990
C      2.795600   -0.821928   -0.862386
C      3.401795    0.382151   -0.494795
C      2.739198    1.265148    0.361757
C      1.468460    0.946832    0.850496
N     -2.980158   -0.498177    0.712037
H     -2.526893   -0.466392   -1.893323
H     -1.575112   -1.843317   -1.231305
H     -0.733090   -0.374597   -1.856987
H     -1.676533    1.908975    0.969529
H     -2.587530    1.777282   -0.577349
H     -0.791131    1.772963   -0.597373
H     -0.644045   -0.176709    2.024627
H     -0.602715   -1.705918    1.127703
H      1.068069   -2.081336   -0.668841
H      3.310521   -1.506142   -1.524317
H      4.385373    0.630150   -0.872296
H      3.210454    2.196660    0.647500
H      0.967485    1.640544    1.514164
H     -3.051175   -0.088580    1.672674
H     -3.011980   -1.538605    0.822199
