39

C     -4.599805   -2.907551   -0.507605
C     -4.027105   -1.521893   -0.498957
C     -2.734681   -1.295949    0.022939
C     -2.230883    0.001855   -0.025748
C     -2.946915    1.045836   -0.572183
C     -4.217247    0.850406   -1.108531
C     -4.755525   -0.449223   -1.074724
N     -2.255521    2.204913   -0.512531
C     -1.086736    1.877337    0.081547
C     -1.034914    0.539242    0.393045
C      0.070732   -0.032037    1.010953
C      1.177704    0.795861    1.318600
C      1.118015    2.195516    0.998816
C     -0.027419    2.728096    0.373768
O      2.157323    3.087663    1.275252
C      2.363049    0.144379    1.999707
C      2.985545   -0.918702    1.125999
C      3.783306   -0.664683    0.064600
C      4.356396   -1.806818   -0.733891
C      4.153954    0.739169   -0.339247
H     -4.215335   -3.496033    0.352581
H     -4.316100   -3.418023   -1.451472
H     -5.707531   -2.873068   -0.432530
H     -2.149472   -2.101986    0.447812
H     -4.772584    1.671433   -1.543221
H     -5.737941   -0.622670   -1.495980
H     -2.556886    3.145599   -0.852327
H      0.077844   -1.089084    1.247593
H     -0.083436    3.780329    0.124606
H      3.036570    2.833833    1.698706
H      3.139878    0.846626    2.346226
H      1.988935   -0.347057    2.923845
H      2.765487   -1.950541    1.387633
H      5.462138   -1.807967   -0.635348
H      4.089900   -1.680967   -1.804310
H      3.971582   -2.792572   -0.394893
H      4.652933    1.261966    0.502876
H      3.247603    1.297524   -0.648961
H      4.857142    0.729242   -1.198895
