39

C      5.302795    0.494219   -1.421675
C      4.835874   -0.352079   -0.232807
C      5.530650   -1.712423   -0.248463
O      3.422980   -0.559546   -0.297156
C      2.436617    0.393272    0.008607
C      2.739002    1.665365    0.532315
C      1.714513    2.576042    0.800981
C      0.383621    2.226609    0.564943
C      0.061669    0.954198    0.074265
C      1.097696    0.049334   -0.218650
N     -1.314459    0.626475   -0.178018
C     -1.898032   -0.660069    0.085995
O     -1.200149   -1.600339    0.552808
C     -3.326549   -0.900471   -0.192714
C     -3.649602   -1.898595   -1.126682
C     -4.977498   -2.142069   -1.476395
C     -5.999329   -1.391627   -0.899464
C     -5.699903   -0.410367    0.047060
C     -4.368766   -0.168885    0.442817
C     -4.104636    0.884565    1.503901
F     -5.192433    1.009358    2.351520
F     -3.880477    2.105789    0.897232
F     -3.010371    0.551795    2.282034
H      6.402491    0.644932   -1.377066
H      5.043896   -0.007798   -2.378419
H      4.816557    1.490895   -1.405914
H      5.108177    0.150218    0.720475
H      6.632144   -1.584841   -0.178402
H      5.191283   -2.316189    0.619858
H      5.286235   -2.263798   -1.181774
H      3.757158    1.966754    0.730653
H      1.952903    3.556260    1.193452
H     -0.400632    2.942616    0.777077
H      0.874816   -0.916027   -0.653293
H     -1.943450    1.395474   -0.499467
H     -2.866721   -2.476414   -1.603649
H     -5.213475   -2.905751   -2.206260
H     -7.028053   -1.572518   -1.183521
H     -6.516540    0.155636    0.477330
