17

C      0.246655   -0.131487    1.498188
C     -1.164487    0.361318    1.157076
C     -1.163878    1.256473   -0.047788
O     -0.895879    2.480615    0.082669
N     -1.424898    0.723919   -1.346346
C      0.770883   -1.084680    0.457736
O      0.411176   -2.291838    0.495439
C      1.662796   -0.634608   -0.623482
O      2.025606    0.570216   -0.695723
O      2.106927   -1.546372   -1.576328
H      0.933276    0.733561    1.625528
H      0.210564   -0.659697    2.475595
H     -1.841111   -0.504773    0.988896
H     -1.565566    0.928498    2.024857
H     -1.407158    1.346553   -2.184253
H     -1.624213   -0.292809   -1.475692
H      2.719306   -1.254889   -2.328862
