38

C     -0.938705   -1.790238   -0.756805
C     -0.772837   -0.781627    0.424845
C      0.314557   -1.378757    1.399546
C      1.772500   -1.272908    0.882441
C      2.028613    0.190643    0.544630
C      1.112001    0.614857   -0.607359
C     -0.345234    0.646836   -0.106580
C     -1.399961    1.132567   -1.097423
C     -1.119783    1.574608   -2.336134
C     -2.851493    1.015877   -0.683130
C     -3.003418    0.606762    0.790124
C     -2.142798   -0.626585    1.204876
O     -2.906040   -1.810125    1.180894
O      1.683238    1.839346   -1.057164
C      3.049209    1.780280   -0.814625
O      3.878821    2.613104   -1.265540
C      3.358842    0.657599    0.059888
C      4.559833    0.286928    0.496843
H     -0.009782   -1.911421   -1.344682
H     -1.740729   -1.482581   -1.456802
H     -1.197277   -2.802118   -0.378291
H      0.276502   -0.844003    2.374372
H      0.087482   -2.444109    1.622584
H      1.933201   -1.924401   -0.002906
H      2.467604   -1.600729    1.684658
H      1.810158    0.801802    1.452514
H      1.203686   -0.104199   -1.450940
H     -0.366861    1.362217    0.746597
H     -0.111770    1.629861   -2.724389
H     -1.920913    1.876510   -3.004389
H     -3.357184    1.995184   -0.830407
H     -3.362570    0.268373   -1.327103
H     -2.708376    1.477981    1.416998
H     -4.076513    0.416288    1.010101
H     -1.912918   -0.445424    2.277307
H     -3.403555   -1.835892    0.322233
H      5.453209    0.772791    0.126502
H      4.659261   -0.505295    1.226717
