16

C      0.926503   -1.030395   -0.359484
C      1.356307    0.430972   -0.155062
N      0.253048    1.352894   -0.453398
C     -0.926504    1.030394    0.359484
C     -1.356307   -0.430973    0.155062
N     -0.253047   -1.352894    0.453400
H      0.703789   -1.212864   -1.433896
H      1.764257   -1.701725   -0.072174
H      1.699356    0.581844    0.892227
H      2.214054    0.657096   -0.824540
H      0.000321    1.259487   -1.465820
H     -0.703792    1.212864    1.433897
H     -1.764258    1.701724    0.072172
H     -1.699354   -0.581845   -0.892227
H     -2.214055   -0.657097    0.824538
H     -0.000320   -1.259482    1.465821
