25

C     -1.271538    1.394423   -0.817306
N     -1.408208    0.120369   -0.070717
C     -1.485337    0.401371    1.383390
C     -2.676019   -0.528276   -0.486529
C     -0.287363   -0.818678   -0.385603
C      1.121979   -0.311921   -0.022054
O      2.059698   -1.298109   -0.381385
S      3.598090   -0.786239    0.112035
O      4.619114   -1.758156   -0.406794
O      3.676973   -0.761193    1.614009
O      3.945668    0.739439   -0.509803
H     -2.183121    2.023644   -0.704952
H     -1.115594    1.206670   -1.903064
H     -0.421093    2.001689   -0.440107
H     -1.491408   -0.542359    1.973111
H     -0.632161    1.024682    1.726635
H     -2.410603    0.968149    1.632737
H     -2.674027   -0.749194   -1.577862
H     -3.554111    0.123814   -0.277455
H     -2.832675   -1.487215    0.057269
H     -0.287131   -1.056353   -1.474620
H     -0.442824   -1.785860    0.146173
H      1.175801   -0.120696    1.070858
H      1.336281    0.620098   -0.585267
H      3.639609    1.379901    0.181209
