34

C     -1.268526    2.699514   -0.893007
C     -1.242767    2.022058    0.473324
N     -0.844593    0.614136    0.341984
C      0.440334    0.169157    0.288828
C      0.492369   -1.190263    0.085278
C      1.695880   -1.883268   -0.016530
C      2.888204   -1.149880    0.093661
C      2.857095    0.256616    0.294924
C      1.618440    0.920688    0.390204
O      4.027286    1.022537    0.402044
C      5.345712    0.490761    0.324247
C     -0.808198   -1.617709   -0.008496
C     -1.614139   -0.501353    0.142617
C     -3.020488   -0.658005    0.062669
N     -3.511294   -1.917044   -0.151242
C     -2.711962   -3.014619   -0.299881
C     -1.321161   -2.889819   -0.232755
C     -4.011478    0.451474    0.231855
H     -1.933771    2.149317   -1.589901
H     -1.637507    3.741237   -0.787219
H     -0.245177    2.724738   -1.323387
H     -0.527089    2.560127    1.129387
H     -2.215175    2.125389    0.981634
H      1.717044   -2.952864   -0.180163
H      3.827418   -1.679896    0.015992
H      1.594529    1.992221    0.532409
H      5.506119    0.010738   -0.664223
H      6.077081    1.316498    0.440890
H      5.508811   -0.246360    1.138666
H     -3.159272   -3.984626   -0.470329
H     -0.676348   -3.750612   -0.353199
H     -5.037533    0.082924    0.018466
H     -4.001472    0.812222    1.280926
H     -3.808367    1.273966   -0.480807
