37

C     -4.246020   -1.843627   -0.704229
C     -3.692388   -0.482691   -1.108062
N     -2.914340    0.092888    0.020476
C     -3.515308    1.352288    0.516208
C     -4.798733    1.078548    1.299954
C     -1.493406    0.301952   -0.341013
C     -0.738407   -1.032537   -0.392707
O      0.647633   -0.813715   -0.649385
C      1.555913   -0.376638    0.323661
O      1.176272   -0.212659    1.516223
C      2.963515   -0.114954   -0.049233
C      3.893509    0.317746    0.913739
C      5.222153    0.564428    0.554966
C      5.641820    0.383284   -0.769235
C      4.720337   -0.047060   -1.732652
C      3.391081   -0.294497   -1.376560
N      7.001013    0.635997   -1.134937
H     -4.915284   -1.740573    0.175509
H     -3.416091   -2.535081   -0.447891
H     -4.826056   -2.277455   -1.545899
H     -4.544376    0.165061   -1.413445
H     -3.078323   -0.615022   -2.026793
H     -3.718615    2.056509   -0.321891
H     -2.823905    1.865303    1.221013
H     -4.602975    0.337688    2.103994
H     -5.159319    2.020993    1.763600
H     -5.598016    0.693148    0.634132
H     -0.987352    0.931556    0.422919
H     -1.403195    0.833336   -1.315438
H     -1.141277   -1.661632   -1.212402
H     -0.869694   -1.589855    0.560650
H      3.595467    0.465920    1.944175
H      5.924336    0.896852    1.309246
H      5.031828   -0.190707   -2.759709
H      2.699856   -0.625750   -2.141304
H      7.323161    0.503815   -2.119634
H      7.695184    0.957141   -0.423687
