39

C     -4.605198   -2.194788    0.069663
O     -4.141102   -0.850075    0.110506
C     -2.796306   -0.456107   -0.003735
C     -1.750714   -1.364201   -0.214944
C     -0.446291   -0.973119   -0.285707
C     -0.047656    0.363947   -0.109481
C      1.390046    0.813312   -0.076116
C      1.669887    2.171781   -0.356820
C      2.995481    2.603118   -0.491421
C      4.045338    1.717434   -0.284418
C      3.796713    0.411297    0.146419
C      2.461147   -0.035399    0.318945
O      2.151785   -1.260976    0.936942
C      3.072719   -2.213457    1.456974
O      4.880864   -0.425097    0.406408
C      0.562358    3.149149   -0.413891
O      0.786569    4.365242   -0.662829
C     -0.810593    2.699687   -0.144779
N     -1.815340    3.612629   -0.057922
C     -3.110281    3.245508    0.116344
C     -3.457960    1.896308    0.165720
C     -2.458936    0.915608    0.055537
C     -1.094306    1.325096   -0.046135
O      0.329761   -2.075910   -0.599171
C     -0.514163   -3.226587   -0.680172
O     -1.830086   -2.728776   -0.430348
H     -5.703916   -2.201892    0.221365
H     -4.384627   -2.645383   -0.920710
H     -4.133080   -2.787820    0.881112
H      3.222352    3.632102   -0.741481
H      5.063259    2.065848   -0.406576
H      2.502707   -3.047188    1.915537
H      3.695631   -2.631882    0.639009
H      3.703853   -1.749870    2.244042
H      5.838103   -0.113584    0.289094
H     -3.877669    4.004737    0.187229
H     -4.502665    1.628498    0.263812
H     -0.458115   -3.673417   -1.694741
H     -0.229570   -3.965777    0.097672
