38

C     -2.258351   -0.892176   -0.283565
C     -0.826273   -0.778563   -0.832257
C      0.209365   -0.469157    0.262471
N      1.575290   -0.492775   -0.290644
C      2.591803   -0.189095    0.743998
C      4.014217   -0.593680    0.287950
C      4.484292    0.102339   -0.999069
C      5.882848   -0.311668   -1.332223
O      6.090000   -1.329412   -2.044154
O      6.959705    0.397442   -0.815279
C      2.558211    1.259663    1.174516
O      2.319055    2.177051    0.344713
O      2.840789    1.591119    2.493604
C     -2.873691    0.478378    0.050085
C     -4.289134    0.362221    0.659215
C     -4.727315    1.709568    1.169428
O     -4.843661    1.911018    2.407023
O     -4.986040    2.745204    0.279300
N     -5.263737   -0.145175   -0.316796
H     -2.873907   -1.384161   -1.065783
H     -2.267776   -1.546178    0.615724
H     -0.561773   -1.749884   -1.304627
H     -0.784622    0.000886   -1.624307
H     -0.003359    0.531511    0.694578
H      0.117927   -1.228512    1.071606
H      1.640081    0.192608   -1.079378
H      1.755572   -1.451526   -0.672263
H      2.378332   -0.804797    1.648069
H      4.037905   -1.694960    0.131222
H      4.730732   -0.366763    1.109146
H      4.462688    1.204816   -0.871775
H      3.819608   -0.165508   -1.847638
H     -2.222686    0.995710    0.786474
H     -2.908409    1.103532   -0.869467
H     -4.247945   -0.341347    1.522398
H     -6.229709   -0.087351    0.081410
H     -5.072960   -1.150394   -0.528212
H     -5.227071    0.410019   -1.202877
