50

C     -1.002799   -4.544591   -1.931772
C     -0.639667   -3.813032   -0.685232
O      0.168786   -4.331933    0.131390
O     -1.235793   -2.575819   -0.416736
C     -0.954073   -1.801843    0.752364
C      0.447645   -1.138496    0.694373
C      0.940502   -0.818509   -0.729910
C      2.179475    0.029142   -0.695233
C      3.356874   -0.473158   -0.301201
C      4.617572    0.307308   -0.270915
C      4.635422    1.715575   -0.209991
C      5.850826    2.406276   -0.176482
C      7.062134    1.704016   -0.194606
C      7.051999    0.307712   -0.239871
C      5.839236   -0.386776   -0.272474
O      8.278042    2.383024   -0.164348
C     -2.098005   -0.798226    1.003338
C     -2.273218    0.244233   -0.109401
C     -3.529178    1.045143    0.110454
C     -4.737443    0.646343   -0.482946
C     -5.912825    1.372991   -0.259687
C     -5.888027    2.503495    0.575151
C     -4.685686    2.893436    1.180790
C     -3.514016    2.166863    0.953663
O     -7.054978    3.231793    0.801510
O     -7.093465    0.956568   -0.873816
H     -0.154987   -5.179968   -2.265948
H     -1.888313   -5.185350   -1.739179
H     -1.245191   -3.818564   -2.736144
H     -0.963400   -2.483257    1.633544
H      1.180242   -1.832123    1.162249
H      0.449979   -0.212462    1.311273
H      0.161756   -0.274021   -1.298940
H      1.158449   -1.757531   -1.282701
H      2.099117    1.047664   -1.049276
H      3.406380   -1.522853   -0.032009
H      3.719947    2.288988   -0.164285
H      5.849426    3.488033   -0.130338
H      7.985490   -0.240693   -0.250273
H      5.855032   -1.469080   -0.308844
H      8.318684    3.395025   -0.129878
H     -3.042462   -1.377099    1.108345
H     -1.923368   -0.276322    1.970222
H     -2.318491   -0.258187   -1.100197
H     -1.403268    0.935033   -0.116648
H     -4.767100   -0.229001   -1.121170
H     -4.658561    3.759394    1.830145
H     -2.594855    2.477595    1.435209
H     -7.063856    4.046018    1.404156
H     -7.969990    1.447227   -0.743197
