20

C     -0.759779    1.881411   -0.176390
C     -1.573016    1.019676    0.438560
C     -1.008085   -0.220513    1.090954
C      0.215024   -0.772826    0.305317
C      1.170194    0.361238   -0.053839
C      0.678242    1.585587   -0.324893
C      2.616638    0.086171   -0.213540
O      3.065344   -1.077637   -0.039116
O      3.499940    1.104380   -0.555346
N     -0.191857   -1.486301   -0.914271
O     -1.995832   -1.203129    1.284573
H     -1.156629    2.806849   -0.573442
H     -2.628138    1.246914    0.528356
H     -0.644949    0.086114    2.096252
H      0.740139   -1.490029    0.975925
H      1.327323    2.382901   -0.664527
H     -0.715463   -2.355896   -0.664250
H      0.654015   -1.774546   -1.457989
H     -0.790960   -0.877856   -1.518495
H     -2.502151   -1.302507    0.436162
