38

C      2.934301    1.362381    2.170976
C      1.825162    0.796515    1.541258
C      1.943204    0.222479    0.257956
C      3.204793    0.222471   -0.382983
C      4.310834    0.800528    0.266176
C      4.178055    1.367243    1.535222
O      5.289102    1.936283    2.153932
C      3.373957   -0.356870   -1.739102
O      2.422325   -0.324956   -2.563735
O      4.577418   -0.940729   -2.131748
O      0.851519   -0.379379   -0.397576
C     -0.521614   -0.338182   -0.000218
C     -1.156436    0.993942   -0.454781
C     -2.658617    0.994896   -0.115455
C     -3.326986   -0.278532   -0.653379
C     -2.525899   -1.519444   -0.195148
O     -1.180775   -1.419911   -0.633878
C     -3.129934   -2.807618   -0.773999
O     -2.363083   -3.919956   -0.398428
O     -4.643823   -0.340471   -0.164758
O     -3.281565    2.116730   -0.687221
O     -0.524841    2.070240    0.188257
H      2.824758    1.799199    3.155590
H      0.885432    0.812688    2.071584
H      5.277721    0.838902   -0.219024
H      5.225926    2.356795    3.073775
H      5.348586   -1.070994   -1.489043
H     -0.593309   -0.461594    1.103286
H     -1.027805    1.077460   -1.561040
H     -2.780796    1.013752    0.995073
H     -3.321804   -0.231086   -1.770135
H     -2.571967   -1.602815    0.916693
H     -3.142329   -2.748065   -1.883474
H     -4.179990   -2.939312   -0.427259
H     -2.569972   -4.098760    0.556074
H     -5.202843   -0.744449   -0.878757
H     -3.135645    2.877212   -0.065954
H     -0.633062    2.863408   -0.398755
