29

C      0.293807    0.808957   -0.201648
C     -0.296871   -0.018031   -1.382003
C     -1.240201   -1.145466   -0.898272
C     -2.364068   -0.617898    0.018972
C     -1.790055    0.269223    1.093577
O     -2.162514    0.147212    2.250799
C     -0.821724    1.360431    0.723541
O     -1.527372    2.391714    0.083086
O     -3.298109    0.101771   -0.742929
O     -0.490566   -2.125869   -0.225320
O     -0.992523    0.825788   -2.264263
N      1.248160   -0.002116    0.576262
C      2.471135   -0.288822    0.207224
N      3.290606   -1.095727    1.059154
N      3.026362    0.186007   -1.028563
H      0.828343    1.697398   -0.603283
H      0.532135   -0.506826   -1.943226
H     -1.706254   -1.607528   -1.801043
H     -2.873098   -1.493033    0.487712
H     -0.355588    1.760769    1.655503
H     -0.946313    3.196509    0.106523
H     -4.105237    0.214855   -0.175400
H     -1.038726   -2.953743   -0.214502
H     -0.309987    1.348082   -2.761589
H      0.923110   -0.371801    1.499425
H      4.269052   -1.331926    0.782173
H      2.928376   -1.464023    1.966815
H      2.501934    0.781751   -1.703748
H      4.006186   -0.067660   -1.284138
