46

C      2.660405   -0.126568    0.350303
C      2.173556   -0.212542   -1.105471
C      1.000013   -1.195808   -1.277372
N     -0.251515   -0.721686   -0.639619
C     -0.608578   -1.542828    0.530637
C     -1.869174   -1.093211    1.248109
O     -2.168340   -1.681371    2.277242
C     -2.783259    0.026460    0.773785
C     -4.151910   -0.550565    0.349951
C     -5.201904    0.539475   -0.010538
C     -4.819719    1.380371   -1.245614
O     -3.853331    2.345428   -0.926724
O     -6.439230   -0.076448   -0.263400
O     -3.967885   -1.426438   -0.735223
O     -2.958916    0.948618    1.818379
C      3.797394    0.893398    0.545356
C      5.113036    0.559533   -0.198604
C      6.124148    1.644151    0.065044
O      6.665818    1.751539    1.197451
O      6.441790    2.554963   -0.934821
N      5.653454   -0.747826    0.200401
H      2.972351   -1.129275    0.711059
H      1.817971    0.202696    0.994070
H      1.874567    0.794970   -1.468776
H      3.002786   -0.573373   -1.749064
H      1.308019   -2.201737   -0.909770
H      0.829104   -1.315107   -2.371461
H     -0.160844    0.280382   -0.351448
H     -1.023459   -0.797998   -1.343403
H      0.225033   -1.530744    1.266178
H     -0.761850   -2.598289    0.211841
H     -2.354892    0.551662   -0.101070
H     -4.554560   -1.121090    1.221490
H     -5.323254    1.232856    0.854613
H     -4.427396    0.728925   -2.054535
H     -5.726491    1.886743   -1.649731
H     -4.319684    3.061110   -0.420765
H     -6.814377   -0.346476    0.615636
H     -4.735238   -2.056298   -0.734821
H     -2.116025    1.469867    1.884177
H      4.005915    0.967903    1.635683
H      3.436284    1.892737    0.214879
H      4.921012    0.548772   -1.293391
H      6.612351   -0.875387   -0.198633
H      5.053170   -1.514572   -0.178917
H      5.703654   -0.826919    1.242508
