32

C     -3.091349    0.700985   -1.713546
C     -3.379816    1.460591   -0.453805
O     -4.489656    1.941317   -0.283255
C     -2.328208    1.613957    0.607564
N     -2.049381    0.307644    1.216685
C     -0.882724    0.364549    2.110805
C      0.423303    0.132351    1.337794
C      0.430329   -1.227152    0.619003
C      1.803681   -1.584339    0.021954
C      2.304151   -0.621369   -1.076729
C      3.671514   -1.066031   -1.531037
O      3.788171   -2.015068   -2.351576
O      4.818280   -0.471523   -1.011617
N      1.380250   -0.596633   -2.214832
H     -3.786956   -0.160102   -1.796703
H     -2.048752    0.318733   -1.715057
H     -3.228615    1.367871   -2.590233
H     -1.416134    2.031754    0.130590
H     -2.673754    2.334081    1.384112
H     -2.882536    0.045472    1.795104
H     -0.832222    1.337413    2.650672
H     -0.975325   -0.427307    2.887597
H      1.268018    0.172016    2.059575
H      0.565673    0.951968    0.604616
H      0.166598   -2.020485    1.352386
H     -0.347576   -1.247870   -0.173095
H      2.549657   -1.617058    0.847115
H      1.737487   -2.611425   -0.400731
H      2.399682    0.405519   -0.661171
H      4.761757    0.274080   -0.328314
H      0.529041   -0.057093   -1.937660
H      1.815414   -0.036846   -2.984633
