37

C      4.740436    0.029419   -1.429358
C      5.761578   -0.394724   -0.580144
C      5.463245   -0.802766    0.720705
C      4.142509   -0.790398    1.187325
C      3.093967   -0.400054    0.314100
C      3.415887    0.027986   -0.986916
C      1.667564   -0.452355    0.700753
O      1.246854   -1.356207    1.473494
O      0.773859    0.475235    0.153098
C     -0.623024    0.469957    0.436364
C     -1.267665    1.701326   -0.225829
C     -2.791329    1.688747    0.005917
C     -3.375904    0.321385   -0.392863
C     -2.561949   -0.814952    0.276125
O     -1.194439   -0.716193   -0.086630
C     -3.065413   -2.200479   -0.162664
O     -4.356034   -2.452520    0.325059
O     -4.718784    0.250924    0.014150
O     -3.400786    2.696312   -0.759403
O     -0.693540    2.890052    0.259114
O      3.922463   -1.136188    2.522490
H      4.973794    0.350375   -2.436410
H      6.786929   -0.398564   -0.926844
H      6.265850   -1.109414    1.379634
H      2.637423    0.337473   -1.673825
H     -0.755813    0.521056    1.543294
H     -1.075116    1.648743   -1.320628
H     -3.003310    1.854385    1.089769
H     -3.303512    0.202455   -1.500855
H     -2.671900   -0.755292    1.385039
H     -3.081243   -2.263046   -1.271852
H     -2.365128   -2.986401    0.202655
H     -4.260512   -2.653478    1.292627
H     -5.252678    0.737376   -0.666966
H     -3.259224    3.551067   -0.274657
H     -0.856192    2.926223    1.238138
H      3.041136   -0.997465    2.997155
