24

C     -2.645229    0.397762    1.121369
C     -1.483383   -0.387462    0.509102
C     -0.379770    0.522322   -0.092424
C     -0.929371    1.309906   -1.300162
C      0.865801   -0.320722   -0.502891
C      1.974307    0.541736   -1.070744
O      2.553580    0.198794   -2.136129
O      2.377201    1.697659   -0.407058
N      1.354744   -1.130011    0.630127
O      2.344293   -1.945384    0.185964
O      1.899779   -0.314235    1.568549
H     -3.259524    0.876809    0.331593
H     -3.302417   -0.296806    1.686169
H     -2.266952    1.171982    1.822155
H     -1.877047   -1.077035   -0.269453
H     -1.055299   -1.012432    1.321256
H     -0.068748    1.256211    0.684338
H     -1.751327    1.986185   -0.989284
H     -1.306140    0.615675   -2.081506
H     -0.144961    1.955258   -1.746565
H      0.533898   -1.021765   -1.303376
H      3.123286    2.275149   -0.775595
H      2.036072   -2.859387    0.412836
H      1.407209   -0.526456    2.401730
