20

C     -1.238577    1.360143   -0.858738
C     -1.780908    0.619497    0.111098
C     -0.898513   -0.062148    1.127340
C      0.428696   -0.540207    0.479418
C      1.037070    0.570063   -0.369656
C      0.225877    1.421748   -1.027503
C      2.505691    0.630710   -0.554141
O      3.031689    1.535073   -1.256672
O      3.325631   -0.314416    0.050797
N      0.228655   -1.744013   -0.341191
O     -1.575771   -1.140038    1.719593
H     -1.876719    1.914529   -1.534752
H     -2.858405    0.569824    0.208785
H     -0.639195    0.688980    1.910248
H      1.128769   -0.789215    1.308579
H      0.629678    2.164941   -1.703728
H      1.131711   -2.021705   -0.790154
H     -0.086750   -2.540665    0.257918
H     -0.482065   -1.570606   -1.088850
H     -2.236565   -0.752493    2.351608
