20

C      0.999860    1.580415    0.882493
C      1.783800    0.595559    0.437072
C      1.235313   -0.464739   -0.485258
C     -0.248830   -0.774389   -0.156238
C     -1.046552    0.508589    0.046412
C     -0.443477    1.587527    0.581493
C     -2.499568    0.520883   -0.242219
O     -3.182506    1.566795   -0.075562
O     -3.129927   -0.628074   -0.704888
N     -0.353489   -1.624823    1.037117
O      1.327693   -0.014956   -1.812233
H      1.424188    2.380584    1.475143
H      2.840010    0.600431    0.675224
H      1.838375   -1.395071   -0.369788
H     -0.672426   -1.333823   -1.021067
H     -1.006860    2.483250    0.811627
H     -1.357943   -1.843625    1.230314
H      0.057237   -1.145616    1.871439
H      0.149699   -2.527560    0.876591
H      2.285403   -0.071356   -2.069395
