17

C     -1.298008   -1.596079    0.275786
C     -2.018669   -0.489092    0.444480
C     -1.425049    0.823498    0.161798
O     -2.155896    1.849628    0.157784
C      0.064171    0.957689   -0.051142
C      0.703997   -0.362497   -0.470620
C      0.078477   -1.535232   -0.247897
C      2.057150   -0.353467   -1.076831
O      2.636755    0.737547   -1.322100
O      2.703594   -1.543652   -1.392679
N      0.682477    1.431368    1.188530
H     -1.746686   -2.561524    0.472005
H     -3.048757   -0.559246    0.771309
H      0.228996    1.707969   -0.857495
H      0.559656   -2.473849   -0.492835
H      0.277974    2.367165    1.424611
H      1.699819    1.599774    1.015296
