30

C      2.336972    0.093427   -1.243840
C      3.527951   -0.419549   -1.765492
C      4.702021   -0.380571   -1.008648
C      4.690322    0.180782    0.273480
C      3.495893    0.696291    0.797442
C      2.306116    0.639706    0.053318
C      1.072166    1.213086    0.636621
C     -0.154716    0.729825    0.409927
C     -1.400915    1.254966    0.966189
O     -1.527036    2.251225    1.726055
C     -2.456241    0.388286    0.460566
C     -3.845805    0.390413    0.643421
C     -4.595266   -0.610017   -0.001149
C     -3.958893   -1.582912   -0.806053
C     -2.563128   -1.559779   -0.970827
C     -1.835015   -0.563181   -0.326298
O     -0.454646   -0.385348   -0.373666
O     -4.705687   -2.571577   -1.442330
O     -4.494663    1.339151    1.431881
O      5.866541    0.224553    1.019841
O      5.880874   -0.894881   -1.535806
H      1.454450    0.087834   -1.868849
H      3.540631   -0.838831   -2.763601
H      3.493954    1.130816    1.790098
H      1.178766    2.034217    1.335959
H     -5.670708   -0.632742    0.122211
H     -2.062759   -2.298148   -1.583887
H     -5.713283   -2.618174   -1.345538
H     -3.997195    2.076159    1.913471
H      5.889298    0.624972    1.950448
