15

C      2.240107    0.666119   -0.020453
N      2.139912   -0.289012    1.081143
C      0.996609   -0.875164    0.987589
C      0.281685   -0.360058   -0.155516
N      0.977222    0.550611   -0.745078
C     -1.108220   -0.732267   -0.559935
C     -2.099263    0.114375    0.176097
O     -2.637246   -0.319257    1.228752
O     -2.402451    1.397583   -0.269506
H      3.088600    0.396783   -0.684636
H      2.361904    1.696615    0.375320
H      0.649611   -1.631247    1.678994
H     -1.233993   -0.587218   -1.654292
H     -1.285567   -1.806458   -0.336440
H     -1.968910    1.778594   -1.102040
