24

C     -0.161855    0.088725    0.811119
C     -1.597408   -0.361015    1.103148
C     -2.548783    0.807435    1.027735
N     -2.829688    1.474900    2.103980
C     -3.135702    1.250115   -0.258190
O     -3.992929    2.173261   -0.260457
O     -2.766061    0.682795   -1.477627
C      0.805623   -1.099606    0.850576
N      2.169842   -0.664816    0.554218
C      2.657808   -0.385366   -0.621395
N      1.874119   -0.504935   -1.816568
N      4.016127    0.042126   -0.720289
H     -0.119414    0.577360   -0.184982
H      0.151932    0.836287    1.572759
H     -1.910030   -1.154320    0.391693
H     -1.640562   -0.814609    2.117926
H     -2.429779    1.224290    3.036117
H     -2.058930   -0.035348   -1.559554
H      0.491858   -1.904091    0.150912
H      0.796350   -1.531521    1.874022
H      0.888472   -0.844859   -1.815185
H      2.296396   -0.259845   -2.739250
H      4.607503    0.133905    0.135677
H      4.435111    0.269129   -1.649182
