16

C     -0.460753   -1.069703   -0.256748
C     -1.642931   -0.560421    0.584352
C     -1.496432    0.906766    0.523056
O     -2.306229    1.717182    1.044985
N     -0.342687    1.322234   -0.171657
C      0.394104    0.164104   -0.642109
C      1.752999    0.122106   -0.005289
O      1.876239    0.259918    1.241970
O      2.878303   -0.098228   -0.793059
H      0.120862   -1.828417    0.312958
H     -0.845705   -1.556527   -1.179712
H     -1.558764   -0.905439    1.637175
H     -2.614964   -0.874535    0.147077
H     -0.057037    2.316527   -0.316360
H      0.500984    0.224206   -1.747384
H      3.802010   -0.139772   -0.379255
