28

C     -2.130818   -0.753118   -1.691230
C     -3.418012   -0.497784   -1.222920
C     -3.608459    0.192540   -0.022466
C     -2.497647    0.636831    0.715896
C     -1.188020    0.387179    0.240975
C     -1.008712   -0.319061   -0.965755
C      0.357824   -0.593108   -1.466344
O      0.507487   -1.072813   -2.623465
C      1.541170   -0.318081   -0.604738
C      2.842175   -0.707183   -1.002493
C      3.932900   -0.458068   -0.165246
C      3.745903    0.133692    1.078580
C      2.470153    0.500796    1.508707
C      1.356985    0.334832    0.641238
C      0.009042    0.875095    0.970342
O     -0.109895    1.819184    1.796651
O      2.352482    0.988148    2.812640
O      3.057498   -1.342000   -2.226285
O     -2.689228    1.314145    1.922392
O     -4.900009    0.438649    0.441726
H     -2.014224   -1.295454   -2.621232
H     -4.270799   -0.841548   -1.794592
H      4.930595   -0.748568   -0.469466
H      4.598180    0.280836    1.730246
H      1.478037    1.035144    3.316636
H      3.983193   -1.626997   -2.524557
H     -3.610549    1.507909    2.295952
H     -5.717250    0.128804   -0.071194
