30

C     -0.442929   -0.029914   -0.816398
C      0.357632    0.390565    0.432645
C     -0.037974   -0.488958    1.630904
O     -1.445145   -0.406485    1.856025
C     -2.364369   -0.327070    0.802737
C     -3.733537   -0.431041    1.070587
C     -4.660766   -0.348413    0.027806
C     -4.222670   -0.161458   -1.286324
C     -2.856244   -0.050598   -1.561435
C     -1.919425   -0.116725   -0.518849
C      1.852628    0.350321    0.176188
C      2.607449    1.536375    0.237087
C      3.985152    1.512867   -0.000432
C      4.624117    0.308282   -0.302123
C      3.886591   -0.875768   -0.367656
C      2.508779   -0.858388   -0.131060
H     -0.106837   -1.024981   -1.178586
H     -0.264796    0.711656   -1.626043
H      0.056713    1.433628    0.682762
H      0.494879   -0.152580    2.545632
H      0.227993   -1.550548    1.439993
H     -4.077732   -0.579617    2.086121
H     -5.719195   -0.432594    0.237805
H     -4.942481   -0.104130   -2.092588
H     -2.528541    0.088125   -2.584290
H      2.131805    2.481320    0.468237
H      4.557739    2.430051    0.049152
H      5.690641    0.292501   -0.485817
H      4.382753   -1.808567   -0.602693
H      1.957769   -1.787855   -0.189389
