40

C      4.163940   -0.427837    1.290607
C      4.799482   -0.051337   -0.048890
C      3.783814   -0.094607   -1.211129
C      2.662785    0.960587   -1.095907
C      1.342557    0.353183   -0.598967
C      0.264480    1.429552   -0.435582
N     -0.993111    0.823845    0.044625
C     -1.919699    0.360120   -0.862732
O     -1.722995    0.453828   -2.105451
C     -3.084063   -0.218196   -0.375573
C     -3.286260   -0.336736    0.956162
N     -4.477517   -0.915626    1.210013
C     -4.976277   -1.138343   -0.033946
N     -4.146752   -0.724265   -1.023079
C     -4.380956   -0.812050   -2.460783
N     -2.369452    0.080823    1.870728
C     -1.216775    0.676664    1.405244
O     -0.354805    1.090946    2.231403
C     -2.631496   -0.041302    3.311031
O      5.846408   -0.948990   -0.312293
H      3.444902    0.353016    1.614687
H      4.951556   -0.504781    2.070056
H      3.643098   -1.406338    1.215643
H      5.211945    0.980975    0.044138
H      4.341935    0.104329   -2.152541
H      3.362300   -1.119753   -1.308701
H      2.483486    1.399113   -2.102524
H      2.975309    1.794462   -0.429657
H      0.989796   -0.405768   -1.331194
H      1.496466   -0.154837    0.375340
H      0.616252    2.211801    0.272680
H      0.103718    1.951853   -1.404562
H     -5.939141   -1.600017   -0.211261
H     -5.363864   -1.287243   -2.665756
H     -4.378670    0.206017   -2.903519
H     -3.584639   -1.424447   -2.933347
H     -3.387054   -0.827801    3.521896
H     -1.704770   -0.327415    3.852955
H     -3.001198    0.928646    3.705042
H      6.435266   -0.516421   -0.984854
