34

C     -4.998606   -0.045529    0.076809
N     -3.744653   -0.470706   -0.564387
C     -3.044856    0.676274   -1.198173
C     -1.840792    1.181032   -0.389372
N     -0.915090    0.075199   -0.106351
C     -1.445461   -1.290792   -0.025968
C     -2.920193   -1.254307    0.384837
C      0.499494    0.303633    0.066670
N      1.377192   -0.715139   -0.158569
C      2.719938   -0.564939   -0.007428
C      3.580208   -1.640946   -0.254272
C      4.960938   -1.482223   -0.098013
C      5.486202   -0.250007    0.305157
C      4.633890    0.830746    0.554729
C      3.247719    0.679356    0.399746
C      2.367643    1.738876    0.644791
C      0.993197    1.554298    0.481984
H     -4.803874    0.718681    0.861748
H     -5.688826    0.379716   -0.683065
H     -5.512775   -0.917603    0.536285
H     -3.733466    1.529534   -1.392828
H     -2.677989    0.345249   -2.193656
H     -2.185469    1.631616    0.566058
H     -1.331109    1.963956   -0.992285
H     -0.885723   -1.874644    0.737500
H     -1.333735   -1.792491   -1.011328
H     -2.980528   -0.827648    1.412987
H     -3.306344   -2.295594    0.425111
H      3.182153   -2.598499   -0.566692
H      5.624977   -2.315199   -0.289488
H      6.555510   -0.132699    0.424764
H      5.055140    1.778766    0.867206
H      2.740282    2.704272    0.965903
H      0.325007    2.377762    0.695931
