44

C      1.772973    1.545329    3.011928
C      1.543959    0.568171    1.861986
C      0.570569    1.147292    0.821975
C      0.312921    0.153149   -0.301929
C     -0.895301   -0.612580   -0.403787
C     -0.796905   -1.914311   -0.971147
C      0.359569   -2.301666   -1.669406
C      1.439198   -1.424758   -1.796077
C      1.424938   -0.204989   -1.094372
O      2.482731    0.603420   -1.151381
C      3.577827    0.330473   -1.856317
C      3.654796   -0.863359   -2.586681
C      2.580583   -1.751069   -2.549701
O      2.650014   -2.834098   -3.191431
C      4.696188    1.294214   -1.847464
O      5.734281    1.072918   -2.525954
O      4.625615    2.457330   -1.085336
C     -1.871378   -2.802294   -0.836485
O     -1.794603   -3.988673   -1.258349
C     -3.038532   -2.377749   -0.225313
C     -3.193158   -1.038337    0.131208
N     -2.147346   -0.143434   -0.013267
C     -2.457424    1.309847   -0.014755
C     -2.858232    1.829908    1.376167
C     -4.533638   -0.639689    0.610931
O     -5.260458    0.115193   -0.086218
O     -5.022931   -1.136377    1.814255
H      2.476267    1.097687    3.744226
H      0.813517    1.762940    3.529240
H      2.206252    2.493784    2.629785
H      1.128653   -0.378213    2.272318
H      2.526131    0.342965    1.395659
H     -0.339167    1.399367    1.375242
H      0.980781    2.090015    0.399360
H      0.405963   -3.275562   -2.142950
H      4.537637   -1.107638   -3.164756
H      3.821935    2.666905   -0.504888
H     -3.863810   -3.071793   -0.111063
H     -3.279775    1.516809   -0.733626
H     -1.617285    1.911672   -0.419345
H     -3.961430    1.877685    1.474563
H     -2.465274    2.857850    1.521056
H     -2.462235    1.176801    2.182229
H     -4.464415   -1.755136    2.389871
