44

C     -1.399853   -1.507234    2.128443
C     -0.549877   -0.607099    1.197723
C      0.866027   -1.241446    1.200807
C      0.801803   -2.138979    2.376106
O      1.784941   -2.774664    2.840080
O     -0.469020   -2.250871    2.893218
C      1.968817   -0.214616    1.343975
O      1.915184    0.618100    2.291110
C      3.105489   -0.150600    0.396049
C      3.709486    1.097852    0.116361
C      4.776494    1.127527   -0.776369
C      5.250010    0.003878   -1.369037
C      4.700253   -1.248084   -1.117979
C      3.618766   -1.324245   -0.221639
O      6.305431    0.329826   -2.198694
C      6.507244    1.748044   -2.121875
O      5.509932    2.217513   -1.203804
C     -1.142425   -0.490147   -0.232076
C     -2.526888    0.129729   -0.220898
C     -3.647440   -0.640768   -0.612011
C     -4.902603   -0.041054   -0.575451
C     -5.075016    1.243994   -0.178318
C     -4.007413    2.041819    0.217536
C     -2.720126    1.475616    0.195887
O     -6.416026    1.569877   -0.240587
C     -7.130556    0.416660   -0.706693
O     -6.126847   -0.588360   -0.907417
O     -0.290751    0.237135   -1.084454
H     -2.047504   -0.900735    2.796900
H     -2.029216   -2.215878    1.547746
H     -0.514599    0.404806    1.660445
H      1.002840   -1.868003    0.294334
H      3.353287    2.015271    0.567909
H      5.098408   -2.136282   -1.590636
H      3.206491   -2.298087    0.005443
H      6.357941    2.211121   -3.119787
H      7.522387    1.969719   -1.730756
H     -1.210534   -1.517941   -0.652853
H     -3.546335   -1.670644   -0.929786
H     -4.163250    3.064728    0.534065
H     -1.879997    2.082329    0.507069
H     -7.859787    0.081928    0.060485
H     -7.641555    0.644452   -1.665527
H     -0.063613    1.093814   -0.637760
