45

C      5.024606   -0.672859   -1.651360
C      4.543911   -0.393395   -0.221752
C      4.822446   -1.589155    0.697079
C      3.068467   -0.018694   -0.199979
C      2.642779    1.226821    0.299622
C      1.280917    1.557695    0.300302
C      0.310061    0.666391   -0.204848
C      0.736631   -0.608807   -0.639251
C      2.101756   -0.928242   -0.660097
C     -0.258759   -1.630631   -1.118803
C     -1.577275   -1.491952   -0.360092
C     -2.173811   -0.084588   -0.579326
C     -1.155822    1.007005   -0.238269
C     -1.590707    2.278190   -0.107142
C     -3.024529    2.613142   -0.090033
O     -3.377280    3.816864    0.024949
C     -4.071242    1.550319   -0.254348
C     -3.546835    0.146412    0.147168
C     -3.408550    0.063714    1.688578
C     -4.597209   -0.894456   -0.305252
O      3.571309    2.140388    0.800523
H      4.530654   -1.572726   -2.074821
H      4.804239    0.199030   -2.303837
H      6.122825   -0.840824   -1.656585
H      5.159753    0.449913    0.157763
H      4.312315   -2.505169    0.330950
H      4.468348   -1.367808    1.726690
H      5.914528   -1.788406    0.741283
H      1.002541    2.509351    0.725454
H      2.409865   -1.898957   -1.028045
H      0.131968   -2.659414   -0.957358
H     -0.427982   -1.493553   -2.208884
H     -2.269042   -2.271529   -0.740985
H     -1.393021   -1.680581    0.719048
H     -2.364665    0.005474   -1.673709
H     -0.905969    3.104093    0.005051
H     -4.378914    1.548597   -1.323324
H     -4.967854    1.816991    0.348141
H     -2.634145    0.762721    2.067237
H     -4.371615    0.323081    2.178801
H     -3.139169   -0.962393    2.013687
H     -5.605010   -0.622834    0.077506
H     -4.649541   -0.945799   -1.414146
H     -4.360824   -1.906295    0.085462
H      3.289850    3.042876    1.165486
