48

C     -1.986003    0.092554    1.276397
C     -0.541167   -0.433906    1.263368
N      0.220697    0.152363    0.143401
C     -0.412164   -0.217713   -1.139207
C     -1.834155    0.352536   -1.209925
C     -2.737497   -0.185174   -0.059175
C     -4.117519    0.500219   -0.010980
C     -5.029821    0.147719    1.010732
C     -6.293735    0.738534    1.084900
C     -6.680956    1.685112    0.138243
C     -5.807718    2.037474   -0.889615
C     -4.541072    1.451038   -0.971898
C     -2.981038   -1.675105   -0.256761
O     -3.279951   -2.120656   -1.398337
O     -2.957260   -2.549949    0.827336
C      1.630136   -0.297066    0.185560
C      2.545770    0.748915   -0.461660
C      3.989233    0.338102   -0.341312
C      4.571726   -0.492184   -1.312255
C      5.902525   -0.901183   -1.184157
C      6.663399   -0.493457   -0.079621
C      6.079785    0.324228    0.898125
C      4.749045    0.733884    0.771133
N      8.024199   -0.912935    0.051389
H     -2.514087   -0.362443    2.141062
H     -1.955140    1.190421    1.457827
H     -0.532499   -1.545817    1.207726
H     -0.074429   -0.140586    2.229809
H      0.161753    0.209164   -1.988525
H     -0.434969   -1.323437   -1.271410
H     -2.269823    0.108811   -2.203878
H     -1.748592    1.459720   -1.135642
H     -4.770102   -0.597108    1.751045
H     -6.976125    0.456957    1.876542
H     -7.661106    2.140524    0.196726
H     -6.114311    2.765604   -1.629667
H     -3.913659    1.751311   -1.797283
H     -3.145111   -3.537465    0.703198
H      1.970888   -0.424333    1.238886
H      1.756783   -1.283399   -0.317472
H      2.290185    0.878626   -1.534218
H      2.389084    1.732356    0.033614
H      3.994525   -0.823539   -2.166733
H      6.339316   -1.538017   -1.943132
H      6.654544    0.640858    1.759397
H      4.310441    1.357697    1.540201
H      8.598641   -0.615780    0.871505
H      8.467333   -1.523475   -0.670931
