49

C     -2.085997    4.744310   -0.524260
C     -2.507914    3.418479   -1.057873
O     -3.270885    3.365617   -2.060070
O     -2.026300    2.250564   -0.455196
C     -2.260777    0.930236   -0.956066
C     -1.178024    0.527889   -2.001540
C      0.267472    0.948937   -1.600170
C      0.604768    2.179391   -2.473509
O     -0.350933    2.179523   -3.516983
C     -1.361065    1.277139   -3.269937
O     -2.326782    1.105198   -4.059411
C      1.262602   -0.166092   -1.857399
O      1.229404   -0.778129   -2.960780
C      2.277195   -0.554171   -0.849564
C      2.729205   -1.893521   -0.794831
C      3.671788   -2.230732    0.171697
C      4.167098   -1.317637    1.042974
C      3.765590    0.013197    1.021720
C      2.812225    0.397560    0.061507
O      5.077970   -1.928534    1.882949
C      5.158407   -3.313130    1.516648
O      4.245506   -3.462665    0.420272
C     -2.386154   -0.013271    0.229831
C     -1.393088   -0.965667    0.580125
C     -1.598784   -1.748238    1.711679
C     -2.706414   -1.624377    2.482111
C     -3.706254   -0.705592    2.188888
C     -3.538295    0.107519    1.053983
O     -2.641523   -2.520851    3.531238
C     -1.414337   -3.253891    3.411465
O     -0.779902   -2.729252    2.236915
H     -1.683339    4.630058    0.503994
H     -2.954331    5.435639   -0.495622
H     -1.297212    5.171211   -1.177895
H     -3.250055    0.898597   -1.467975
H     -1.262168   -0.560118   -2.221289
H      0.297932    1.233239   -0.526549
H      0.487896    3.109744   -1.877171
H      1.633209    2.149090   -2.894692
H      2.348444   -2.649794   -1.469616
H      4.178411    0.730907    1.718312
H      2.512700    1.436343    0.019129
H      4.843474   -3.953273    2.367268
H      6.190200   -3.564512    1.193075
H     -0.494152   -1.112103    0.006161
H     -4.583013   -0.616120    2.816600
H     -4.303073    0.836659    0.815750
H     -0.775234   -3.079318    4.302293
H     -1.625492   -4.336058    3.281815
