47

C      5.340445   -0.808849    0.645228
C      4.500810   -0.927572   -0.631942
C      4.789566   -2.235943   -1.379678
C      3.015608   -0.749992   -0.345981
C      2.280486   -1.666695    0.439083
C      0.909863   -1.467343    0.655176
C      0.245422   -0.357726    0.104086
C      0.990080    0.584171   -0.626696
C      2.354711    0.377215   -0.865475
C      0.294017    1.795518   -1.176128
C     -0.774923    2.260226   -0.185280
C     -1.727360    1.127582    0.180055
C     -1.226477   -0.139008    0.292027
C     -2.117167   -1.337875    0.615526
C     -3.612274   -1.063641    0.427414
C     -3.976797    0.278068    1.043294
C     -3.221554    1.446602    0.357333
C     -3.845035    1.736350   -1.026958
C     -3.402380    2.692581    1.256206
O     -1.756777   -2.459700   -0.153675
O      2.904714   -2.777271    1.006105
H      6.421575   -0.834352    0.391139
H      5.128704   -1.636098    1.353156
H      5.126563    0.157818    1.149692
H      4.840353   -0.108689   -1.305738
H      4.643334   -3.122613   -0.730008
H      4.125787   -2.322961   -2.266195
H      5.842847   -2.240984   -1.734823
H      0.375043   -2.175874    1.271775
H      2.902390    1.103047   -1.454884
H      1.015211    2.624291   -1.345586
H     -0.180126    1.535570   -2.147217
H     -1.310954    3.117331   -0.639657
H     -0.281804    2.622218    0.742944
H     -1.955046   -1.589457    1.687043
H     -3.881918   -1.081186   -0.649686
H     -4.196968   -1.866441    0.927894
H     -3.725406    0.242837    2.127452
H     -5.076965    0.426052    0.970619
H     -3.639347    0.910732   -1.739798
H     -4.945060    1.869211   -0.945452
H     -3.427507    2.663934   -1.470065
H     -3.017574    3.614042    0.773046
H     -4.479613    2.863129    1.472970
H     -2.868415    2.556833    2.221834
H     -1.795151   -2.189475   -1.109399
H      2.395067   -3.445612    1.572216
