42

C     -2.585607   -0.008249   -1.893289
C     -2.598831    0.532846   -0.453256
C     -3.494666   -0.282222    0.518180
C     -2.789781   -1.551203    1.026164
C     -1.359510   -1.219083    1.482262
C     -0.613987   -0.458876    0.371854
O     -1.290960    0.749109    0.058023
O      0.684227   -0.145511    0.844660
C      1.555356    0.249296   -0.208751
C      2.251390    1.572848    0.198870
C      1.239049    2.708532    0.438053
O      0.503241    2.980526   -0.724753
O      3.005677    1.369465    1.366867
C      2.575089   -0.900008   -0.461165
C      3.571772   -0.609618   -1.607851
O      4.633618    0.194317   -1.167941
O      1.889977   -2.098475   -0.728301
O     -0.680073   -2.406940    1.802038
O     -2.777172   -2.525670    0.012577
O     -3.831436    0.517628    1.624246
H     -1.900677    0.605806   -2.515648
H     -3.605339    0.058130   -2.328778
H     -2.259344   -1.064366   -1.948545
H     -3.064046    1.539540   -0.538013
H     -4.431276   -0.588877   -0.005781
H     -3.364119   -1.939366    1.901355
H     -1.423970   -0.566934    2.386101
H     -0.542676   -1.125872   -0.516353
H      1.019738    0.445486   -1.170406
H      2.917907    1.900121   -0.630683
H      0.537682    2.430998    1.253020
H      1.775791    3.627249    0.767695
H      1.113596    3.462837   -1.341493
H      3.679147    2.098051    1.406506
H      3.155991   -1.067917    0.471921
H      3.052942   -0.098711   -2.446708
H      3.976576   -1.567138   -2.009388
H      5.228457   -0.388521   -0.627444
H      1.425939   -1.989285   -1.599931
H      0.064992   -2.160709    2.410233
H     -2.688858   -3.408997    0.457090
H     -4.555826    1.129762    1.329814
