47

C      4.970435   -0.670638    1.912020
C      4.703029   -0.409632    0.424119
C      5.382912    0.884218   -0.039548
C      3.209775   -0.378459    0.128100
C      2.637065   -1.262078   -0.804796
C      1.260462   -1.221369   -1.059146
C      0.411143   -0.327469   -0.374085
C     -1.097834   -0.282699   -0.671257
C     -1.698762   -1.695594   -0.875111
C     -3.196469   -1.638983   -1.175580
C     -3.959530   -0.924947   -0.060354
C     -3.436151    0.512003    0.207265
C     -1.882723    0.453927    0.463507
C     -1.252675    1.838325    0.718885
C      0.180454    1.681841    1.111854
O      0.687699    2.498515    1.928352
C      1.003893    0.618535    0.496831
C      2.383909    0.567849    0.756952
C     -4.173876    1.032679    1.466253
C     -3.807391    1.440420   -0.977464
O      3.434697   -2.180824   -1.488446
H      4.457373   -1.602470    2.232823
H      6.060474   -0.798192    2.084894
H      4.612867    0.171614    2.541068
H      5.186845   -1.241501   -0.131257
H      6.482365    0.807400    0.100416
H      5.015076    1.760025    0.535837
H      5.181678    1.053344   -1.119070
H      0.874458   -1.891099   -1.810831
H     -1.211220    0.282274   -1.620794
H     -1.234522   -2.205553   -1.741561
H     -1.520826   -2.317706    0.030008
H     -3.584431   -2.676675   -1.267838
H     -3.370923   -1.135817   -2.150348
H     -5.039222   -0.900289   -0.327820
H     -3.869518   -1.536148    0.866129
H     -1.734405   -0.142451    1.394983
H     -1.295951    2.464327   -0.197191
H     -1.780589    2.368490    1.536837
H      2.823768    1.282408    1.440693
H     -3.858404    0.471267    2.371947
H     -3.987178    2.112691    1.637715
H     -5.273343    0.911898    1.352904
H     -3.569391    2.499505   -0.744976
H     -3.272803    1.167644   -1.907877
H     -4.897850    1.386055   -1.184969
H      3.045608   -2.826661   -2.165515
