23

C     -3.466566   -0.136338   -0.481254
O     -2.125270   -0.612469   -0.436124
C     -0.998030    0.188764   -0.182274
C     -1.121213    1.570583    0.049450
C      0.004548    2.347228    0.303811
C      1.265170    1.759788    0.354105
C      1.426003    0.379800    0.147598
C      0.283271   -0.414140   -0.162171
C      0.396506   -1.890522   -0.480205
C      0.253031   -2.686004    0.743772
N      0.139771   -3.313369    1.709541
C      2.794885   -0.178079    0.275744
O      2.981588   -1.343354    0.716996
O      3.896546    0.611648   -0.043601
H     -3.749022    0.303330    0.498571
H     -4.145312   -0.986598   -0.697241
H     -3.576758    0.619376   -1.287397
H     -2.086568    2.057241    0.031909
H     -0.101878    3.410544    0.476906
H      2.118695    2.387128    0.581116
H      1.360511   -2.127068   -0.974469
H     -0.389184   -2.201764   -1.200244
H      4.839276    0.254275    0.055459
