22

C     -1.074791    0.094022    1.651035
N     -1.089600   -0.023067    0.191846
C     -1.849695    0.667145   -0.684651
C     -1.539680    0.260516   -1.963088
N     -0.580436   -0.683692   -1.904527
C     -0.330429   -0.834108   -0.584518
C      0.709987   -1.785922   -0.069295
O      1.774167   -1.073482    0.558016
C      2.693528   -0.288747   -0.146457
O      2.637234   -0.200387   -1.403002
N      3.705978    0.416197    0.566227
N     -2.819196    1.673044   -0.351664
O     -3.021555    2.008927    0.832439
O     -3.533900    2.290877   -1.351443
H     -0.754008    1.116453    1.940986
H     -2.088784   -0.109520    2.054269
H     -0.374372   -0.632455    2.109610
H     -1.976194    0.628920   -2.881885
H      1.109090   -2.410948   -0.897611
H      0.243643   -2.468419    0.671079
H      4.400487    1.005834    0.056051
H      3.758525    0.348812    1.606581
