42

C     -0.930919    2.991023   -1.656831
C     -1.137150    1.543639   -1.180465
C     -2.117704    1.382790   -0.012676
C     -2.306619    2.423151    0.924601
C     -3.130809    2.244470    2.037223
C     -3.764424    1.022858    2.251074
C     -3.576635   -0.025736    1.352398
C     -2.766718    0.140728    0.219802
N     -2.585754   -0.977649   -0.657055
C     -3.082820   -1.100495   -1.901689
C     -2.755033   -2.352134   -2.375079
C     -2.062418   -2.950291   -1.339235
N     -1.981763   -2.098920   -0.298412
N      0.162799    0.885851   -0.933362
C      0.759343    1.202099    0.372865
C      2.167807    0.695636    0.411951
O      3.112352    1.481352    0.130120
N      2.421828   -0.686336    0.715095
C      3.731755   -1.276051    0.781842
N      4.852265   -0.525424    0.590788
C      6.093924   -1.073478    0.652790
C      6.228862   -2.436485    0.919094
N      5.116431   -3.191771    1.112237
C      3.873733   -2.644832    1.050271
H     -0.357893    2.991035   -2.608579
H     -1.913305    3.474580   -1.845218
H     -0.363547    3.598024   -0.923584
H     -1.593284    1.048123   -2.062202
H     -1.809160    3.375704    0.816031
H     -3.267401    3.053291    2.743489
H     -4.395697    0.885207    3.119418
H     -4.066094   -0.974585    1.533807
H     -3.654953   -0.343015   -2.422051
H     -3.000608   -2.778757   -3.338206
H     -1.652802   -3.951271   -1.340518
H      0.024948   -0.150834   -0.986442
H      0.767134    2.297519    0.552774
H      0.182351    0.720519    1.193042
H      1.595648   -1.302370    0.892035
H      6.968002   -0.455464    0.497014
H      7.209134   -2.890808    0.972497
H      3.005193   -3.270890    1.208090
