36

C      1.197824    2.460242    0.212556
C      0.286728    1.285342   -0.055876
C     -0.922712    1.508478    0.469698
C     -0.870094    2.806946    1.104862
O     -1.816399    3.365952    1.718801
O      0.384470    3.360491    0.955612
C     -2.124023    0.654594    0.369800
C     -2.089312   -0.681099    0.800473
C     -3.237912   -1.480361    0.722271
C     -4.427910   -0.940913    0.223917
C     -4.476456    0.397063   -0.190030
C     -3.328137    1.192212   -0.110788
O     -5.659257    0.945464   -0.680780
O     -3.207474   -2.808916    1.140129
C      0.656292    0.156120   -0.983759
C      1.968738   -0.459611   -0.578591
C      3.171920    0.001948   -1.138421
C      4.393249   -0.546942   -0.736346
C      4.425279   -1.557596    0.233889
C      3.230625   -2.013811    0.800035
C      2.007972   -1.466080    0.400120
O      5.636082   -2.112040    0.642510
H      2.076063    2.148994    0.816483
H      1.516857    2.933987   -0.739813
H     -1.177232   -1.095673    1.209050
H     -5.314368   -1.559864    0.164235
H     -3.373095    2.224931   -0.435177
H     -6.508259    0.396698   -0.751006
H     -2.361152   -3.229777    1.505604
H     -0.125655   -0.629440   -1.010637
H      0.727202    0.559443   -2.016793
H      3.164119    0.789429   -1.881880
H      5.313355   -0.184146   -1.176469
H      3.249985   -2.791809    1.552619
H      1.094155   -1.827542    0.852601
H      6.518533   -1.802712    0.252022
