37

C      4.505190    1.327251    2.836208
C      4.544756    1.209880    1.310576
C      3.936375   -0.097961    0.878023
O      4.685645   -1.013691    0.441037
N      2.522059   -0.314821    0.984716
C      1.910826   -1.575525    0.566873
C      0.425842   -1.530210    0.761174
O     -0.084636   -2.078871    1.775095
N     -0.398482   -0.824827   -0.177900
C     -1.838880   -0.641943    0.024250
C     -2.091261    0.596377    0.885519
C     -2.539839   -0.508733   -1.303319
O     -2.165322    0.376170   -2.121325
N     -3.641750   -1.369236   -1.629734
C     -4.368148   -1.264544   -2.892792
C     -5.217006   -0.033446   -2.901210
O     -6.265828    0.013816   -2.203907
O     -4.834185    1.069206   -3.659190
N      3.823300    2.326044    0.699040
H      5.002750    2.267056    3.157889
H      5.043152    0.473141    3.300911
H      3.456187    1.337173    3.202397
H      5.610106    1.243391    0.984794
H      1.923265    0.452292    1.368302
H      2.132572   -1.757453   -0.506728
H      2.341999   -2.411278    1.159791
H      0.075389   -0.311794   -0.956433
H     -2.251970   -1.526157    0.557410
H     -1.611468    0.470113    1.879168
H     -3.182473    0.739783    1.039019
H     -1.670205    1.503472    0.400054
H     -3.930784   -2.111884   -0.953431
H     -5.022913   -2.154214   -3.018566
H     -3.651366   -1.247586   -3.742197
H     -5.392926    1.914280   -3.665974
H      4.313415    3.214407    0.954749
H      3.906612    2.240325   -0.340862
