15

O     -0.759765    2.872296    0.290046
P     -0.592207    1.265255   -0.210727
O     -1.762871    0.915627   -1.104717
O     -0.580167    0.278950    1.174490
P     -0.662443   -1.332458    0.634696
O     -0.073181   -2.234309    1.695403
O      0.178962   -1.571959   -0.823088
P      1.449226   -0.444840   -0.844414
O      2.377013   -0.791193   -1.986067
O      0.857013    1.128509   -1.089523
O      2.327215   -0.507003    0.603672
O     -2.284432   -1.753393    0.399768
H     -0.681925    3.405685   -0.540900
H      2.944042    0.266448    0.558292
H     -2.736479   -1.497615    1.243067
