50

C      6.819979    2.830535   -0.041601
C      5.611002    1.968335   -0.215117
C      5.582236    0.724181    0.278171
C      4.439570   -0.204531    0.130923
C      3.185400    0.205049   -0.109819
C      2.079906   -0.775019   -0.154087
C      2.342902   -2.098463   -0.136978
C      3.775728   -2.581798   -0.137026
O      4.683188   -1.570779    0.306971
C      1.240292   -3.089384   -0.219177
O      1.520561   -4.315205   -0.327009
C     -0.209553   -2.645481   -0.271146
C     -0.341095   -1.233284    0.363628
C      0.666088   -0.262906   -0.278245
O     -1.671754   -0.736452    0.196598
C     -2.180169    0.363203    0.898882
O     -1.506024    0.908042    1.815206
C     -3.509846    0.899277    0.547257
C     -4.641230    0.049365    0.544435
C     -5.888410    0.549097    0.158900
C     -6.038297    1.891910   -0.196589
C     -4.932732    2.742458   -0.178252
C     -3.662361    2.260218    0.177421
C     -2.490631    3.208910    0.156260
O     -7.284369    2.392981   -0.567101
O     -4.566790   -1.286058    0.945676
C     -1.090230   -3.652980    0.500448
O     -0.593148   -2.613571   -1.626459
H      6.653339    3.813928   -0.529149
H      7.703166    2.344615   -0.507864
H      7.016028    2.995005    1.039110
H      4.776103    2.372815   -0.770877
H      6.466974    0.339847    0.772423
H      2.946288    1.255934   -0.198859
H      4.048809   -2.877901   -1.171838
H      3.883190   -3.468151    0.522903
H     -0.116046   -1.310458    1.452863
H      0.586574    0.727044    0.219264
H      0.425808   -0.121981   -1.354035
H     -6.749198   -0.108125    0.155077
H     -5.066371    3.781650   -0.454046
H     -2.741898    4.156536   -0.366127
H     -1.632810    2.749334   -0.379073
H     -2.189902    3.453138    1.196282
H     -8.107885    1.802845   -0.588728
H     -3.732198   -1.697099    1.342296
H     -2.152528   -3.332635    0.494308
H     -0.753699   -3.739252    1.556318
H     -1.040555   -4.656926    0.026899
H     -1.563398   -2.407811   -1.671564
