50

C     -1.338125    0.800243    0.976896
C     -1.240940   -0.686081    0.756792
C     -0.623856   -1.565392    1.658620
S     -0.667603   -3.110809    0.995417
C     -1.466440   -2.628845   -0.398948
N     -1.696053   -1.293196   -0.386353
C     -2.354140   -0.599288   -1.502403
C     -3.804113   -0.261251   -1.207431
C     -4.530798   -0.952758   -0.220774
N     -5.821057   -0.624663    0.040090
C     -6.450008    0.353893   -0.657421
N     -5.783978    1.020919   -1.633256
C     -4.492431    0.731603   -1.943085
N     -3.874471    1.440657   -3.023162
C     -7.853945    0.728659   -0.318173
C      0.058669   -1.228381    2.954852
C      1.420322   -0.576797    2.714481
O      2.263790   -1.482824    2.042034
P      3.702438   -0.670560    1.619334
O      4.363614   -0.129425    2.870787
O      4.738568   -1.786629    0.876932
O      3.325083    0.608183    0.557501
P      4.778409    1.180240   -0.119993
O      4.457267    2.451334   -0.873758
O      5.900438    1.541530    1.099877
O      5.395032    0.004551   -1.189859
P      6.739038    0.674792   -1.994999
O      7.359034   -0.397950   -2.861018
O      7.900258    1.213587   -0.883845
O      6.247878    1.952692   -2.993021
H     -0.595321    1.316869    0.335036
H     -1.147830    1.076598    2.033215
H     -2.355578    1.159828    0.720493
H     -1.751003   -3.288733   -1.208417
H     -1.781782    0.326522   -1.717521
H     -2.317203   -1.224933   -2.420480
H     -4.076829   -1.747057    0.354982
H     -2.955929    1.158767   -3.428012
H     -4.386746    2.223087   -3.488864
H     -7.849857    1.446254    0.529323
H     -8.430461   -0.175206   -0.026497
H     -8.349092    1.200688   -1.193391
H     -0.583498   -0.550408    3.554946
H      0.199026   -2.155846    3.550657
H      1.854618   -0.314047    3.704876
H      1.267954    0.357158    2.128103
H      4.866467   -2.502076    1.551025
H      6.388357    0.694562    1.263183
H      8.655395    1.534665   -1.439683
H      6.697431    2.755275   -2.625921
