18

C      1.264490    1.198713    0.298169
C     -0.074110    1.592629    0.301586
C     -1.097135    0.663605    0.062610
C     -0.761025   -0.693419   -0.161725
C      0.590611   -1.075576   -0.173843
C      1.612608   -0.137814    0.054798
N      2.995181   -0.539480    0.046127
O      3.312539   -1.727594   -0.170136
O      3.992301    0.381127    0.274677
N     -1.762463   -1.702669   -0.352853
N     -2.453778    1.128201    0.027965
H      2.027908    1.943884    0.480631
H     -0.315171    2.633477    0.478769
H      0.842402   -2.113933   -0.350133
H     -1.485897   -2.677075   -0.608107
H     -2.771972   -1.538911   -0.154913
H     -3.237976    0.549905   -0.340432
H     -2.678514    2.114930    0.286810
