24

C     -2.010115    0.361446   -1.291610
C     -1.189273    0.721781   -0.030745
C      0.340860    0.430689   -0.234168
C      0.696009   -1.070524   -0.375085
C      2.133005   -1.260586   -0.759794
O      2.485184   -1.142033   -1.963945
O      3.083784   -1.531493    0.219294
C      1.155794    1.059509    0.873568
O      1.778383    2.135022    0.663250
O      1.203064    0.470557    2.134377
C     -1.738459   -0.019869    1.180422
O     -1.856026    0.586989    2.278784
O     -2.087999   -1.369761    1.132247
O     -1.368535    2.103031    0.203130
H     -1.645390    0.939927   -2.167244
H     -1.953896   -0.711265   -1.556110
H     -3.079396    0.619706   -1.133369
H      0.641902    0.922651   -1.187958
H      0.507902   -1.608022    0.578598
H      0.074089   -1.547930   -1.158344
H      4.060482   -1.647226   -0.023062
H      1.739455    0.890064    2.884158
H     -1.982546   -1.935056    0.300920
H     -0.988277    2.602394   -0.567312
