30

C      4.912459    1.459885   -0.699163
C      3.624897    1.085298   -0.040727
O      3.312774    1.610182    1.062484
N      2.743730    0.147503   -0.674696
C      1.472116   -0.262052   -0.069426
C      0.587382   -0.969975   -1.119288
C     -0.802110   -1.387305   -0.600950
C     -1.701590   -0.192069   -0.274568
N     -3.049275   -0.666612    0.025778
C     -4.059624    0.089761    0.344242
N     -5.322716   -0.518688    0.612171
N     -3.934669    1.515419    0.432317
C      1.741070   -1.159706    1.106300
O      2.468446   -2.179990    0.976624
O      1.168698   -0.877322    2.340149
H      4.700751    2.018139   -1.634699
H      5.487221    0.542136   -0.943065
H      5.524582    2.098266   -0.027081
H      3.030365   -0.252913   -1.597428
H      0.945023    0.651819    0.278329
H      1.112269   -1.881402   -1.481959
H      0.457916   -0.299541   -1.997335
H     -0.702320   -2.037400    0.294780
H     -1.293742   -1.992394   -1.394119
H     -1.737823    0.495812   -1.147673
H     -1.301721    0.347499    0.610062
H     -6.149073    0.064993    0.869781
H     -5.435627   -1.555353    0.553802
H     -4.763759    2.094878    0.690452
H     -3.035649    2.011131    0.246658
