30

C      2.395373    2.711791    0.083831
C      2.319197    1.329136    0.643613
O      2.725248    1.108404    1.816668
N      1.808693    0.259626   -0.163939
C      1.732589   -1.122332    0.317224
C      0.553820   -1.871850   -0.341196
C     -0.819031   -1.515510    0.258612
C     -1.281496   -0.089780   -0.086658
C     -2.743372    0.155739    0.331091
C     -3.098352    1.611748    0.178418
O     -3.043288    2.168998   -0.950182
O     -3.490456    2.350013    1.287960
N     -3.654140   -0.682815   -0.453031
C      3.024461   -1.819019    0.001682
O      3.661488   -2.414778    0.909927
O      3.514692   -1.827412   -1.298812
H      2.639427    3.444000    0.882657
H      3.182404    2.751301   -0.697585
H      1.418431    2.986099   -0.366502
H      1.588902    0.460370   -1.166456
H      1.581004   -1.131231    1.420167
H      0.698068   -2.964923   -0.188175
H      0.546259   -1.700492   -1.440288
H     -1.556374   -2.243892   -0.143240
H     -0.793396   -1.644815    1.362755
H     -0.639852    0.636521    0.455843
H     -1.169083    0.089492   -1.178895
H     -2.850043   -0.116117    1.405201
H     -4.631254   -0.524536   -0.113967
H     -3.619919   -0.393735   -1.458261
