31

C      2.637049    0.912028   -1.259615
C      1.992900    0.335791    0.008839
O      1.734332    1.391173    0.942092
C      0.501326    2.040777    0.688991
C     -0.691403    1.068423    0.754477
C     -0.136349   -0.365018    0.664278
O      0.827558   -0.401314   -0.366525
C     -1.249370   -1.400124    0.412249
C     -2.217468   -0.921546   -0.677408
C     -2.675766    0.507890   -0.348386
O     -1.556779    1.369950   -0.329815
O     -3.556307    0.958595   -1.343884
O     -3.333947   -1.772192   -0.731892
O     -0.691550   -2.633823    0.038855
C      2.983725   -0.609262    0.638918
O      2.994772   -1.828150    0.315816
O      3.929101   -0.126975    1.539990
H      3.517722    1.537429   -0.997870
H      2.966380    0.092914   -1.935321
H      1.911669    1.536870   -1.820166
H      0.541976    2.566703   -0.290022
H      0.361265    2.832694    1.455023
H     -1.220399    1.204300    1.726511
H      0.331522   -0.639706    1.640968
H     -1.831788   -1.528231    1.356204
H     -1.695966   -0.907926   -1.664456
H     -3.198161    0.531636    0.640905
H     -4.452531    0.587975   -1.130619
H     -3.059039   -2.574642   -1.247747
H     -0.277950   -3.019425    0.855080
H      4.613474   -0.746815    1.956584
