48

C     -2.676748   -3.060836   -0.477105
C     -2.940066   -1.564751   -0.695229
C     -4.397848   -1.186859   -0.400939
C     -4.366778   -0.079818    0.646474
C     -2.955846    0.514925    0.616364
C     -2.072288   -0.683928    0.225285
C     -0.757139   -0.247802   -0.436719
O     -1.041694    0.664503   -1.495830
C     -1.963493    1.702286   -1.345961
C     -2.862764    1.698778   -0.346184
C     -3.706450    2.897149   -0.113505
O     -3.787096    3.809649   -0.979157
O     -4.408974    3.036265    1.077870
O      0.055558    0.384085    0.536837
C      1.393192    0.485926    0.086487
C      2.112308    1.533668    0.950259
C      3.587374    1.632599    0.525751
C      4.229731    0.231830    0.498237
C      3.337202   -0.739435   -0.308899
O      2.028333   -0.773324    0.235491
C      3.914395   -2.162602   -0.275406
O      3.085117   -3.045719   -0.982123
O      5.500608    0.305684   -0.096166
O      4.274941    2.456633    1.432467
O      1.481346    2.778315    0.790282
H     -1.610980   -3.294704   -0.683863
H     -2.913753   -3.354132    0.568579
H     -3.306897   -3.659900   -1.168664
H     -2.729159   -1.329728   -1.763331
H     -4.881234   -0.807856   -1.328058
H     -4.997991   -2.046365   -0.028168
H     -4.545771   -0.527028    1.649726
H     -5.169666    0.663468    0.456311
H     -2.672307    0.872344    1.631327
H     -1.829821   -1.247169    1.156423
H     -0.257239   -1.152416   -0.855152
H     -1.926267    2.518245   -2.056285
H      1.425172    0.830021   -0.978236
H      2.053500    1.208174    2.016689
H      3.626803    2.073710   -0.500072
H      4.314040   -0.150232    1.544695
H      3.309201   -0.417928   -1.377280
H      4.940423   -2.179408   -0.708257
H      3.983317   -2.511408    0.777687
H      3.218782   -2.850530   -1.945850
H      6.133649    0.600134    0.609991
H      5.045474    2.846946    0.942021
H      1.727802    3.328540    1.578464
