18

C     -2.289947    0.908358   -0.674374
C     -1.282961   -0.029464   -0.009458
C      0.109683    0.142634   -0.641955
C      1.175083   -0.683786    0.087859
C      2.527852   -0.438255   -0.509016
O      2.968024   -1.205543   -1.405137
O      3.287715    0.658395   -0.112726
O     -1.727385   -1.352887   -0.168248
H     -3.289990    0.775950   -0.209449
H     -1.979200    1.966659   -0.540884
H     -2.369814    0.686962   -1.760408
H     -1.234262    0.242929    1.072164
H      0.398047    1.216802   -0.598570
H      0.072513   -0.163609   -1.711233
H      0.934515   -1.766501    0.014098
H      1.197347   -0.407257    1.164130
H      2.948818    1.303395    0.591082
H     -1.446036   -1.854783    0.640760
