33

C      0.438004    0.223538    0.782211
C     -0.541372   -0.478998   -0.165663
N     -1.936998   -0.162614    0.213054
C     -2.425478    1.068411   -0.448983
C     -3.607618    1.625779    0.280120
O     -3.463719    2.130390    1.424562
O     -4.871484    1.567665   -0.293329
C     -2.849539   -1.316866    0.024604
C     -2.957682   -1.766726   -1.408124
O     -3.914379   -1.371821   -2.125370
O     -2.000057   -2.615036   -1.949490
N      1.833700   -0.086335    0.390661
C      2.729779    1.060423    0.656008
C      2.560455    2.104197   -0.403862
O      2.195049    3.269345   -0.093042
O      2.808932    1.784392   -1.734789
C      2.320751   -1.299582    1.083524
C      3.434363   -1.927905    0.305815
O      3.215055   -2.404222   -0.838899
O      4.715907   -1.979316    0.839265
H      0.241663    1.316350    0.731011
H      0.233337   -0.082032    1.834118
H     -0.350992   -1.572273   -0.099267
H     -0.332496   -0.176809   -1.217364
H     -2.683842    0.883082   -1.513475
H     -1.639909    1.854095   -0.448195
H     -2.498451   -2.170926    0.643488
H     -3.861365   -1.066922    0.410497
H      2.537854    1.490132    1.666119
H      3.795972    0.745941    0.628186
H      2.697803    2.477673   -2.464969
H      1.516467   -2.061807    1.174327
H      2.660293   -1.061222    2.117248
