13

C     -0.601634   -1.187915    0.260683
C      0.255125    0.086591    0.395121
C     -0.789689    1.149460    0.301217
N     -1.976652    0.683898    0.142723
O     -1.920720   -0.684924    0.108474
O     -0.529461    2.511256    0.381532
N      1.233974    0.207038   -0.689222
H     -0.539573   -1.805498    1.181893
H     -0.326527   -1.797878   -0.626526
H      0.759422    0.128393    1.386072
H      1.908744   -0.590340   -0.638303
H      0.759462    0.199760   -1.622262
H      1.767531    1.100159   -0.581401
