18

C     -0.377100   -1.337236   -0.205994
C      0.664751   -0.483252   -0.937035
C      0.998751    0.818429   -0.174871
C     -0.239989    1.489145    0.357901
O     -0.198497    2.710707    0.663970
N     -1.440697    0.742306    0.594241
C     -1.680721   -0.556951   -0.029455
N      1.936570    0.579034    0.924728
H      0.008084   -1.655972    0.785688
H     -0.580124   -2.254530   -0.799684
H      0.269967   -0.221600   -1.943869
H      1.587872   -1.081839   -1.094979
H      1.483659    1.515572   -0.894039
H     -2.249708    1.227543    1.043452
H     -2.377665   -1.146972    0.603497
H     -2.160170   -0.400241   -1.019872
H      2.819882    0.175688    0.535875
H      1.535136   -0.119830    1.590446
