25

C      3.335579    0.117602   -0.058074
C      2.734910    0.106457   -1.330185
C      1.356478   -0.087170   -1.398608
C      0.597301   -0.262715   -0.270601
C      1.161576   -0.250873    1.004981
C      2.555324   -0.058795    1.107697
O      3.174767   -0.039884    2.354978
C     -0.710063   -0.415952   -0.688831
C     -0.677509   -0.305813   -2.075720
N      0.591083   -0.112716   -2.503723
C     -1.932050   -0.564053    0.167214
C     -2.419476    0.807101    0.651860
N     -3.610750    0.681683    1.488526
H      4.404516    0.265940    0.026020
H      3.325527    0.247087   -2.226199
H      0.549259   -0.383500    1.887658
H      2.645265   -0.162675    3.210193
H     -1.536028   -0.353273   -2.732956
H      0.905759    0.006884   -3.492228
H     -1.694652   -1.211519    1.038517
H     -2.733782   -1.060801   -0.421023
H     -1.617349    1.306058    1.238618
H     -2.657973    1.451015   -0.222900
H     -3.384984    0.071933    2.308010
H     -4.362729    0.207981    0.936777
