44

C      5.919222   -0.923466   -0.157810
C      4.752738   -0.144193   -0.779215
C      4.838113    1.334162   -0.373259
C      3.406564   -0.780148   -0.361001
C      2.187513   -0.191383   -1.109064
C      1.338308    0.765620   -0.249311
C      0.522253    0.081659    0.868441
C     -0.495142   -0.975657    0.394150
C     -1.514734   -0.478740   -0.649343
C     -2.370514    0.721717   -0.199124
C     -3.185704    0.498411    1.090797
C     -4.148826   -0.705089    1.055234
C     -5.255044   -0.598073   -0.005871
C     -6.183889    0.549092    0.267802
O     -7.050644    0.449512    1.175753
O     -6.082354    1.736206   -0.451950
H      6.888964   -0.492410   -0.486730
H      5.868092   -0.886933    0.951832
H      5.889759   -1.985145   -0.483667
H      4.856031   -0.211925   -1.885111
H      5.839727    1.744593   -0.623374
H      4.087078    1.934219   -0.927263
H      4.666219    1.452127    0.718220
H      3.448324   -1.867357   -0.593423
H      3.288201   -0.700380    0.740030
H      2.523472    0.358420   -2.014936
H      1.552465   -1.015536   -1.493790
H      2.001111    1.523123    0.219340
H      0.650825    1.329541   -0.913918
H      1.211130   -0.399810    1.592811
H     -0.013932    0.868357    1.440296
H     -1.038701   -1.363985    1.281096
H      0.047346   -1.848842   -0.024513
H     -2.181462   -1.322370   -0.925883
H     -0.980411   -0.204031   -1.583120
H     -3.056829    0.994594   -1.027044
H     -1.713923    1.604792   -0.051090
H     -3.764866    1.422272    1.304491
H     -2.489436    0.369660    1.946122
H     -3.577113   -1.642203    0.891770
H     -4.623044   -0.802992    2.056405
H     -5.846171   -1.539165    0.004737
H     -4.817811   -0.509257   -1.021786
H     -5.392910    1.851011   -1.184615
