20

C      2.996254    0.807917    0.440876
C      2.096161   -0.274425   -0.071449
O      2.607233   -1.335283   -0.521869
C      0.626746   -0.115793   -0.049609
N      0.111986    0.949001    0.500762
C     -1.318472    1.251090    0.579303
C     -2.164707   -0.020053    0.521516
C     -1.722632   -0.858836   -0.674563
C     -0.248332   -1.253047   -0.537049
H      2.808593    0.969464    1.523049
H      2.801064    1.751198   -0.111121
H      4.062241    0.528276    0.301267
H     -1.525726    1.799967    1.521823
H     -1.591378    1.912061   -0.271562
H     -2.038597   -0.601838    1.461091
H     -3.237462    0.249965    0.415539
H     -1.868110   -0.278210   -1.612466
H     -2.347588   -1.775593   -0.739056
H     -0.166504   -2.090598    0.189228
H      0.119228   -1.615264   -1.521337
