36

C     -4.684511    1.856800   -1.600028
C     -4.266128    1.013630   -0.406341
O     -3.575765   -0.145669   -0.860012
C     -3.062184   -1.106796    0.015080
O     -3.199636   -0.980613    1.262675
C     -2.314533   -2.281087   -0.537420
C     -0.935511   -1.873414   -1.072058
C      0.017382   -1.437045    0.050906
C      1.399844   -1.075733   -0.512348
C      2.422937   -0.752924    0.588241
C      2.147083    0.595434    1.276251
C      3.231052    0.950682    2.305212
C      4.563617    1.231715    1.662859
C      4.772773    2.325541    0.924496
H     -5.222714    2.762509   -1.249311
H     -3.787965    2.169820   -2.176014
H     -5.356983    1.270554   -2.261512
H     -5.170191    0.712411    0.166116
H     -3.600153    1.613591    0.251287
H     -2.908809   -2.714499   -1.370059
H     -2.204010   -3.068630    0.240070
H     -0.496714   -2.747655   -1.600966
H     -1.049568   -1.051112   -1.812848
H     -0.413320   -0.554450    0.568250
H      0.121674   -2.265067    0.786017
H      1.786346   -1.940612   -1.095113
H      1.311553   -0.213432   -1.209257
H      2.434053   -1.568703    1.343972
H      3.428324   -0.720269    0.115332
H      2.068955    1.403042    0.516120
H      1.177401    0.542695    1.814317
H      3.343497    0.112406    3.026510
H      2.910351    1.844441    2.883507
H      5.384107    0.539759    1.828189
H      3.979208    3.047280    0.756711
H      5.748538    2.505403    0.485259
