10

H      1.818727    0.234161   -0.602370
C      1.281540    0.307447    0.366392
H      1.954611   -0.033477    1.180755
H      1.018102    1.370668    0.546052
C      0.059802   -0.562200    0.328966
O      0.187400   -1.761767    0.139195
C     -1.314996    0.007082    0.519178
H     -1.793950   -0.467107    1.401328
H     -1.929831   -0.199470   -0.381797
H     -1.281404    1.104663    0.681359
