8

C     -0.797182   -0.259865   -0.006235
C      0.382995    0.655916    0.025541
O      0.220344    1.883573    0.252470
O      1.669562    0.155990   -0.150848
F     -0.910460   -0.907829    1.209105
H     -0.667825   -1.012073   -0.812213
H     -1.727005    0.315048   -0.202674
H      1.829571   -0.830761   -0.315146
