25

C     -0.037450   -0.680733   -0.639796
C      1.431651   -0.402453   -0.995581
C      2.324133   -0.254017    0.247064
N      3.730340   -0.124594   -0.133838
C     -0.728873    0.530777    0.010626
C     -2.261089    0.357314    0.107082
C     -2.889223    1.646135    0.567302
O     -2.700614    2.065655    1.740175
O     -3.665481    2.392431   -0.310470
N     -2.628666   -0.738673    1.014708
H     -0.088836   -1.560203    0.037383
H     -0.571956   -0.943071   -1.578882
H      1.501936    0.513500   -1.622098
H      1.805151   -1.254613   -1.604424
H      2.022368    0.647588    0.822910
H      2.203268   -1.144313    0.903536
H      3.861525    0.715686   -0.742810
H      4.045957   -0.982816   -0.641645
H      4.309567   -0.010857    0.729220
H     -0.312216    0.698420    1.027319
H     -0.513065    1.435074   -0.601227
H     -2.657952    0.128980   -0.908121
H     -3.666588   -0.759178    1.145943
H     -2.345028   -1.656502    0.603377
H     -2.168860   -0.619536    1.947003
