12

C      0.252699   -1.358497    0.039181
C     -1.052208   -0.867194    0.038313
N     -1.273112    0.474197   -0.000689
C     -0.231802    1.350814   -0.039172
O     -0.454120    2.590876   -0.075028
N      1.049506    0.889255   -0.038964
C      1.307805   -0.446503   -0.000548
O      2.497748   -0.860554   -0.000806
O     -2.125654   -1.749057    0.077311
H      0.440150   -2.425012    0.070061
H     -2.254938    0.832909   -0.001004
H      1.843925    1.568768   -0.068656
