34

C     -0.755706    0.131660   -0.603047
C      0.433076    0.506679    0.323434
N      1.769376    0.109093   -0.199419
C      1.934920   -1.367706   -0.197397
C      3.383836   -1.765534   -0.178986
O      4.048740   -1.684621    0.887349
O      4.003141   -2.199554   -1.344329
C      2.066918    0.677916   -1.539042
C      2.082123    2.179917   -1.526481
O      3.001197    2.798740   -0.928382
O      1.072340    2.892821   -2.160531
N     -2.082510    0.058190    0.068557
C     -2.241852   -1.111928    0.970215
C     -2.200042   -2.413635    0.220356
O     -1.180017   -3.149331    0.281840
O     -3.280224   -2.799633   -0.563074
C     -2.519472    1.342612    0.681566
C     -1.942991    1.630186    2.045137
O     -2.327110    0.978852    3.052007
O     -1.041283    2.673345    2.214429
H     -0.556781   -0.829049   -1.117914
H     -0.808652    0.888007   -1.417811
H      0.301784    0.073905    1.335439
H      0.419152    1.606475    0.472293
H      2.469202    0.505043    0.474643
H      1.454849   -1.826736   -1.089018
H      1.455371   -1.818851    0.700043
H      3.071606    0.345016   -1.879901
H      1.341290    0.316228   -2.299235
H     -2.765270   -0.094113   -0.713704
H     -3.229848   -1.061935    1.479616
H     -1.470358   -1.125547    1.766485
H     -2.278539    2.190230    0.002152
H     -3.628266    1.343255    0.782710
