24

C     -0.214527   -0.573736   -0.519097
C      0.420362    0.686639    0.093439
C      1.649837    1.176582   -0.694256
C      2.868544    0.242791   -0.615286
C      3.369424    0.088642    0.787778
O      4.045907    1.005721    1.323289
O      3.060435   -1.053574    1.515567
C     -1.471190   -1.029164    0.240441
C     -2.685866   -0.132178   -0.032476
C     -3.905132   -0.689881    0.631351
O     -4.652619   -1.492415    0.012715
O     -4.189746   -0.362005    1.950894
H      0.518245   -1.406470   -0.475846
H     -0.462820   -0.396470   -1.588473
H      0.694387    0.497353    1.153453
H     -0.323058    1.510682    0.087084
H      1.942356    2.177403   -0.307135
H      1.370014    1.312525   -1.761662
H      3.683922    0.671237   -1.237274
H      2.629346   -0.752446   -1.043421
H     -1.713115   -2.064572   -0.087428
H     -1.261250   -1.063265    1.332437
H     -2.508234    0.889994    0.361229
H     -2.865222   -0.057500   -1.127325
