15

C      0.905504   -0.393661   -0.434440
C     -0.443818    0.248888   -0.785848
C     -1.165422    0.705992    0.455494
O     -2.179571    0.077387    0.857863
O     -0.710988    1.803824    1.181638
O     -0.220792    1.345977   -1.631946
C      0.728168   -1.667655    0.340582
O      0.527821   -2.750463   -0.270052
O      0.743260   -1.659877    1.732429
H      1.454647   -0.621698   -1.374077
H      1.531302    0.316911    0.148087
H     -1.064599   -0.507405   -1.322863
H      0.107267    2.324912    0.890362
H     -1.096972    1.578011   -2.038170
H      0.884194   -0.801144    2.250940
