49

C     -3.153292    4.274895   -0.832956
O     -2.843424    2.879777   -0.876251
C     -3.766169    1.852513   -0.634301
C     -3.305367    0.523159   -0.670418
C     -4.215583   -0.542442   -0.449489
C     -5.564417   -0.245031   -0.169811
C     -6.007277    1.077852   -0.127638
C     -5.118287    2.122894   -0.358264
O     -3.771523   -1.874413   -0.524247
C     -4.590464   -3.024031   -0.320464
O     -1.934431    0.332656   -0.928581
C     -1.207257   -0.886074   -0.771736
C      0.290257   -0.606305   -0.947605
N      1.117906   -1.770029   -0.573753
C      1.350395   -1.862017    0.887522
C      2.712141   -1.279687    1.323052
C      3.881209   -2.249837    1.044890
O      5.125827   -1.605550    1.330373
C      5.338000   -0.264951    0.986244
C      6.625799    0.280733    0.989508
C      6.818464    1.610713    0.598591
C      5.724342    2.392763    0.208810
C      4.432911    1.854250    0.226110
C      4.238458    0.530741    0.631019
O      2.954046   -0.017725    0.686634
H     -3.476784    4.563552    0.193556
H     -3.950715    4.514866   -1.575047
H     -2.246231    4.862622   -1.098158
H     -6.285577   -1.037291    0.016218
H     -7.047275    1.290882    0.085071
H     -5.492862    3.135841   -0.317951
H     -3.976354   -3.937837   -0.469267
H     -5.418882   -3.030919   -1.057841
H     -4.992371   -3.027159    0.713377
H     -1.529795   -1.618887   -1.537816
H     -1.395108   -1.297793    0.240746
H      0.578420    0.290602   -0.353747
H      0.469603   -0.355071   -2.017974
H      0.655507   -2.647791   -0.909806
H      2.026185   -1.703040   -1.086422
H      0.549854   -1.338850    1.460668
H      1.299051   -2.929554    1.206430
H      2.677803   -1.109058    2.423473
H      3.786081   -3.164198    1.674161
H      3.882521   -2.559373   -0.024105
H      7.473995   -0.326465    1.277596
H      7.815645    2.034378    0.591191
H      5.877905    3.420854   -0.098077
H      3.587120    2.464834   -0.063517
