25

C     -1.970070   -0.616727   -0.275260
C     -0.570470   -1.068236    0.171165
C      0.545634   -0.157455   -0.361646
N      1.866828   -0.693928   -0.016692
C      2.991942   -0.120831   -0.354083
N      3.019493    1.102769   -1.103451
N      4.232847   -0.721402    0.029535
C     -2.427789    0.674435    0.422104
N     -3.813006    0.990870    0.075088
H     -2.687720   -1.429200   -0.027823
H     -1.988419   -0.476955   -1.378268
H     -0.522648   -1.112433    1.281344
H     -0.402037   -2.097421   -0.215185
H      0.455891   -0.084451   -1.467920
H      0.439158    0.854256    0.084341
H      1.911384   -1.583993    0.531471
H      2.154371    1.595973   -1.413633
H      3.935424    1.534295   -1.357750
H      5.139274   -0.274774   -0.232775
H      4.255917   -1.611552    0.575248
H     -2.345660    0.553697    1.525214
H     -1.777467    1.521567    0.114634
H     -4.090549    1.879616    0.550924
H     -3.904048    1.117875   -0.959182
H     -4.448280    0.224004    0.395050
