34

C     -0.239839   -1.650426    0.287499
C      0.131911   -0.365035   -0.461116
O     -0.584358    0.743187    0.082040
C     -1.951853    0.668014    0.367037
C     -2.660193    1.851172    0.585944
C     -4.028499    1.814851    0.846555
C     -4.697369    0.587473    0.871447
C     -4.009683   -0.612136    0.647569
C     -2.601354   -0.585192    0.439512
C     -1.734090   -1.798605    0.373386
O     -2.206617   -2.957790    0.498627
O     -4.772802   -1.782162    0.627135
O     -4.717998    3.004864    1.068721
C      1.618125   -0.111014   -0.385312
C      2.192396    0.428683    0.777332
C      3.572921    0.635908    0.860142
C      4.400377    0.293417   -0.223236
C      3.834782   -0.261668   -1.384273
C      2.450068   -0.465960   -1.458403
O      4.650613   -0.610437   -2.459688
O      5.776760    0.505603   -0.133417
O      4.104676    1.181354    2.028415
H      0.197206   -2.526367   -0.240471
H      0.166870   -1.622474    1.321752
H     -0.174798   -0.478500   -1.525667
H     -2.144453    2.802576    0.546783
H     -5.765531    0.563967    1.049146
H     -4.459797   -2.662403    0.247647
H     -5.713585    3.013161    1.257532
H      1.567308    0.687300    1.623477
H      2.023815   -0.902616   -2.353381
H      4.268708   -1.012741   -3.307751
H      6.409390    0.272926   -0.889471
H      5.096894    1.351069    2.141048
