9

C      0.637664    0.106277   -0.029703
C     -0.380015    1.028052   -0.170679
C     -1.312701    0.028160    0.018518
O     -2.570084   -0.021492    0.049481
C     -0.295386   -0.894146    0.159597
O     -0.240368   -2.133527    0.372545
O     -0.440160    2.395251   -0.405592
O      2.025308    0.165193   -0.064589
H      2.575743   -0.673768    0.070422
