40

C      4.087978   -0.518296    0.547414
C      3.228994   -1.685027    0.074124
O      1.992198   -1.214145   -0.455915
C      0.925958   -0.774114    0.340379
O      1.027874   -0.811089    1.597800
C     -0.322361   -0.169936   -0.308614
C     -0.374787   -0.507624   -1.826019
C     -0.460344   -2.019848   -2.124282
C     -1.214968   -2.817563   -1.089362
C     -1.662493   -2.291469    0.060037
C     -1.614308   -0.803383    0.331641
N     -1.710031   -0.562047    1.788903
C     -3.102468   -0.573918    2.249075
C     -0.255246    1.370366   -0.191621
C     -1.411331    2.172126   -0.027989
C     -1.318568    3.566264    0.018878
C     -0.083067    4.194320   -0.126364
C      1.063558    3.430485   -0.333254
C      0.979782    2.036765   -0.380294
H      5.064675   -0.898299    0.913948
H      4.267623    0.184702   -0.293312
H      3.583549    0.024807    1.373569
H      3.773471   -2.226355   -0.727873
H      3.047761   -2.396539    0.908862
H     -1.267280   -0.015626   -2.274659
H      0.511988   -0.087967   -2.351142
H     -0.943407   -2.169638   -3.113307
H      0.564701   -2.439653   -2.197989
H     -1.316092   -3.887098   -1.246866
H     -2.121366   -2.954870    0.786923
H     -2.505053   -0.389545   -0.191496
H     -1.327009    0.380753    2.028141
H     -3.590971   -1.541592    2.009514
H     -3.124832   -0.444206    3.351570
H     -3.677969    0.257849    1.786611
H     -2.395709    1.744507    0.068937
H     -2.211288    4.161980    0.160335
H     -0.016472    5.274111   -0.092987
H      2.020042    3.919027   -0.467945
H      1.887272    1.481787   -0.575369
