25

C      1.809612   -0.950458   -0.075142
C      3.098995   -0.415967    0.561642
C      3.363014    0.989873    0.129575
O      4.544558    1.405027    0.001687
O      2.296352    1.867793   -0.048503
C      0.969196    1.427672   -0.025266
C      0.661462    0.046791   -0.026056
C     -0.702460   -0.357280   -0.092288
C     -1.087213   -1.712363   -0.211413
C     -2.437357   -2.069391   -0.251983
C     -3.427301   -1.090837   -0.185929
C     -3.074931    0.254956   -0.094089
C     -1.723209    0.632885   -0.057102
C     -1.383926    1.990084   -0.006625
C     -0.048741    2.381056   -0.009483
H      1.554620   -1.876954    0.478154
H      2.003819   -1.215084   -1.137001
H      3.951179   -1.071405    0.278715
H      2.998659   -0.429441    1.668401
H     -0.363923   -2.509435   -0.293644
H     -2.717025   -3.111430   -0.340388
H     -4.471148   -1.375359   -0.218303
H     -3.859284    1.002065   -0.061090
H     -2.154149    2.752267    0.012889
H      0.199202    3.434937    0.003242
