10

C     -1.121651    0.244160    0.118813
C      0.219242   -0.435388    0.376261
C      1.288487    0.128129   -0.510267
O      1.233929   -0.024713   -1.720295
H     -1.041205    1.337082    0.302262
H     -1.449414    0.070439   -0.928461
H     -1.888115   -0.175840    0.803729
H      0.126145   -1.527723    0.195158
H      0.506692   -0.280252    1.438258
H      2.125890    0.664106   -0.075458
