26

C     -3.271153   -0.017266   -0.408682
C     -2.147991    0.913204   -0.077892
C     -1.477178    0.221267    1.097207
O     -1.760838   -1.160069    1.048839
C     -2.753838   -1.359373    0.067954
N     -0.030139    0.441483    1.076551
C      0.670439    1.372707    1.773878
N      1.999711    1.383399    1.476825
C      2.103992    0.415337    0.546638
C      3.222538   -0.021253   -0.154142
N      3.043616   -1.012904   -1.077687
C      1.806207   -1.558453   -1.310354
N      0.712863   -1.119317   -0.616819
C      0.895648   -0.140989    0.302999
N      4.516183    0.540307    0.067773
H     -4.180947    0.265574    0.166151
H     -3.497362   -0.022858   -1.497215
H     -2.517838    1.925439    0.195359
H     -1.457480    0.987750   -0.947722
H     -1.898582    0.624763    2.045460
H     -3.582311   -1.966314    0.491265
H     -2.307296   -1.915739   -0.784662
H      0.219296    2.049918    2.487615
H      1.694479   -2.339964   -2.049136
H      5.338192    0.194260   -0.474988
H      4.659789    1.299089    0.770742
