22

C     -3.979289   -0.487540    0.679451
C     -2.667684   -0.318788   -0.008742
O     -2.495672    0.654100   -0.792495
O     -1.631247   -1.222274    0.252195
C     -0.324587   -1.102057   -0.307393
C      0.477876   -0.022836    0.431524
C      1.853483    0.240034   -0.212901
C      2.468711    1.464743    0.406422
O      2.901192    1.429969    1.590295
O      2.534581    2.649076   -0.320953
N      2.744481   -0.909259   -0.030200
H     -4.021734    0.182212    1.563299
H     -4.808650   -0.233678   -0.013936
H     -4.100506   -1.539350    1.013311
H      0.183403   -2.082137   -0.196570
H     -0.395026   -0.869622   -1.392761
H      0.609794   -0.328754    1.492883
H     -0.109024    0.921739    0.421794
H      1.717494    0.431828   -1.301955
H      2.936177    3.486034    0.084504
H      2.414149   -1.687316   -0.644915
H      3.692077   -0.656123   -0.395424
