39

C      2.727374   -1.067309    0.321612
C      2.147917    0.103125   -0.485131
C      2.604834    1.431564    0.138495
C      4.143241    1.531929    0.079849
C      4.811479    0.279738    0.585255
C      4.206189   -0.925268    0.623398
C      4.970401   -2.119245    1.074508
O      6.229331   -2.083770    1.123316
O      4.326939   -3.297698    1.451919
O      4.571703    1.759016   -1.238688
O      2.020931    2.511236   -0.543333
O      0.722268    0.005243   -0.466368
C     -0.111312    0.541201   -1.457065
O      0.380260    1.092501   -2.478900
C     -1.573861    0.457015   -1.324162
C     -2.156159   -0.094147   -0.250568
C     -3.625509   -0.189517   -0.067081
C     -4.130295   -0.375483    1.231243
C     -5.506827   -0.480238    1.451474
C     -6.398950   -0.411622    0.374610
C     -5.906881   -0.242400   -0.922285
C     -4.530636   -0.136359   -1.147020
O     -7.772650   -0.514343    0.581818
H      2.182552   -1.151323    1.287521
H      2.553440   -2.001261   -0.255494
H      2.519514    0.023092   -1.532410
H      2.278119    1.450217    1.205891
H      4.469196    2.373235    0.735426
H      5.861895    0.364305    0.837694
H      3.319445   -3.383317    1.488503
H      4.498527    2.735180   -1.404663
H      2.143001    3.311720    0.031257
H     -2.170248    0.884747   -2.118230
H     -1.530432   -0.457822    0.556537
H     -3.457677   -0.431347    2.078705
H     -5.878362   -0.615826    2.459252
H     -6.592190   -0.200278   -1.759439
H     -4.186309   -0.037692   -2.166810
H     -8.160260   -0.638798    1.509810
