34

C      4.139745    1.897909   -1.166010
O      4.488283    0.847217   -0.270329
C      3.561837    0.025215    0.390690
C      4.047187   -0.973537    1.244940
C      3.154983   -1.815952    1.918437
C      1.777536   -1.665595    1.748816
C      1.268525   -0.661022    0.905515
C      2.170821    0.173637    0.221516
C     -0.191493   -0.485692    0.697724
C     -1.126333   -0.838307    1.680727
C     -2.487905   -0.654431    1.436060
O     -3.298740   -0.921785    2.360283
C     -2.915405   -0.143834    0.187236
C     -4.278746    0.047562   -0.188532
C     -4.577631    0.669087   -1.407424
C     -3.563673    1.050780   -2.289788
C     -2.231716    0.819102   -1.955396
C     -1.899948    0.232609   -0.731842
O     -0.616377    0.042591   -0.445347
O     -3.871317    1.654788   -3.506988
O     -5.367634   -0.373650    0.580537
O      5.422158   -1.125061    1.416984
H      3.532289    2.663547   -0.638729
H      3.575622    1.490629   -2.031549
H      5.067218    2.377194   -1.540711
H      3.529661   -2.594971    2.570307
H      1.118346   -2.353883    2.260348
H      1.785173    0.944864   -0.431735
H     -0.807937   -1.213879    2.644996
H     -5.612803    0.830392   -1.682379
H     -1.447816    1.107615   -2.645117
H     -4.829827    1.835464   -3.781834
H     -5.319262   -1.050523    1.326496
H      5.805178   -1.838082    2.026766
