21

C     -2.194920   -0.941509    0.023348
C     -0.678837   -0.892914   -0.195246
C      0.023387    0.336521    0.455985
C      1.535546    0.321395    0.123851
C      2.250847   -0.861546    0.709118
O      2.501503   -1.867271   -0.007730
O      2.618272   -0.856166    2.051112
C     -0.542552    1.638108   -0.083386
O     -0.751110    1.778002   -1.319513
O     -0.772987    2.709585    0.775621
O     -0.117031    0.286561    1.859062
H     -2.682821   -0.014624   -0.342985
H     -2.434185   -1.088108    1.096891
H     -2.617981   -1.800076   -0.539640
H     -0.483181   -0.899125   -1.290277
H     -0.251341   -1.830697    0.220273
H      2.013422    1.241566    0.527187
H      1.685892    0.332267   -0.978971
H      3.092747   -1.650785    2.462885
H     -1.129575    3.590176    0.424182
H     -1.065096    0.468641    2.089014
