49

C      4.876446   -3.718970    0.369247
O      5.589655   -2.487584    0.315913
C      4.992252   -1.224180    0.176599
C      3.597418   -1.068327    0.075228
C      3.022216    0.204353   -0.051890
C      3.861991    1.331553   -0.107768
C      5.258606    1.190877   -0.008003
C      5.816787   -0.086165    0.137628
O      7.203768   -0.207333    0.238896
O      6.125677    2.294638   -0.053156
C      5.705677    3.648041   -0.193828
C      1.545908    0.307607   -0.163605
C      0.852760    1.411200    0.147983
C     -0.612916    1.465523    0.035570
O     -1.215148    2.523720    0.363537
O     -1.330084    0.358106   -0.432707
C     -2.750318    0.345931   -0.553236
C     -3.178210   -0.971467   -1.216400
C     -4.716336   -1.027715   -1.298791
C     -5.349062   -0.722035    0.075255
C     -4.732663    0.575368    0.654312
O     -3.322536    0.450156    0.739056
C     -5.264833    0.868783    2.067189
O     -6.631077    1.184754    2.042376
O     -6.737421   -0.567825   -0.072844
O     -5.147484   -2.275485   -1.783559
O     -2.623458   -1.044818   -2.504259
H      4.189452   -3.725080    1.241718
H      4.304479   -3.870204   -0.570534
H      5.600114   -4.551993    0.481894
H      2.950277   -1.935149    0.104733
H      3.436453    2.312625   -0.254498
H      7.663238   -1.103765    0.344686
H      5.049573    3.934742    0.655071
H      5.168591    3.783241   -1.156345
H      6.598281    4.306497   -0.190507
H      1.006978   -0.581018   -0.472043
H      1.356207    2.292532    0.521667
H     -3.053224    1.206494   -1.196382
H     -2.802626   -1.814442   -0.588456
H     -5.055011   -0.249226   -2.019022
H     -5.128020   -1.560046    0.779009
H     -5.004530    1.443581    0.008075
H     -5.112196   -0.017077    2.720196
H     -4.691528    1.712476    2.515518
H     -6.703183    2.108463    1.685644
H     -7.125747   -1.480625   -0.112336
H     -4.842864   -2.969722   -1.142162
H     -2.642327   -2.001009   -2.770496
