20

C     -0.285770    0.329358   -0.957091
C      0.662480    0.839262    0.111513
C      1.603657    0.055611    0.690734
C      1.832212   -1.387252    0.437951
O      0.976441   -2.101952   -0.145128
O      3.002274   -1.987292    0.894750
C      0.525177    2.255706    0.544822
O      1.335977    2.761671    1.368232
O     -0.511730    3.041647    0.048352
C     -1.485703   -0.359210   -0.357999
O     -1.993824    0.089574    0.705356
C     -2.123553   -1.505467   -1.035439
O     -1.679838   -1.916066   -2.140223
O     -3.223014   -2.147718   -0.469988
H      0.257555   -0.334150   -1.661510
H     -0.649941    1.169840   -1.584360
H      2.274044    0.500281    1.415948
H      3.715319   -1.454465    1.378543
H     -0.618268    4.006610    0.337705
H     -3.613493   -1.855988    0.417831
