17

C      2.750621    0.695151   -0.521581
C      1.511970   -0.128095   -0.692424
C      0.774205   -0.492038    0.365864
C     -0.469249   -1.321060    0.208892
C     -1.565034   -0.521110   -0.436222
O     -1.812603   -0.688498   -1.660414
C     -2.331959    0.477966    0.324617
O     -2.086226    0.678358    1.544483
O     -3.334139    1.208359   -0.306835
H      3.211866    0.888089   -1.512669
H      2.496991    1.667158   -0.048164
H      3.481187    0.152949    0.115209
H      1.214640   -0.428839   -1.693507
H      1.079392   -0.195324    1.365989
H     -0.243251   -2.225996   -0.396614
H     -0.807059   -1.667874    1.208893
H     -3.871351    1.900804    0.201315
