34

C      0.299563    2.836104    2.560987
O      0.689788    1.772376    1.698991
C     -0.166034    0.935101    0.954405
C      0.417482   -0.026971    0.107588
O     -0.347467   -0.891810   -0.546034
C     -1.671916   -0.880394   -0.497148
C     -2.374169   -1.856928   -1.207956
C     -3.768890   -1.888101   -1.176094
C     -4.466186   -0.918733   -0.457012
C     -3.789972    0.095207    0.232527
C     -2.362359    0.096497    0.262666
C     -1.577844    0.983550    1.039810
O     -2.125699    1.782933    1.840705
O     -4.582935    1.077781    0.832535
O     -4.473527   -2.872902   -1.865064
C      1.884284   -0.133286   -0.065348
C      2.489170   -1.401025   -0.082433
C      3.869432   -1.524408   -0.268203
C      4.659387   -0.382611   -0.454912
C      4.060957    0.880890   -0.460367
C      2.680984    1.007402   -0.274221
O      6.035578   -0.493114   -0.640263
H     -0.271823    2.440048    3.426460
H      1.210956    3.335889    2.948050
H     -0.297832    3.585963    2.000799
H     -1.830883   -2.601378   -1.777159
H     -5.549292   -0.932396   -0.460816
H     -4.260285    2.001741    1.078675
H     -3.996839   -3.589690   -2.399788
H      1.893883   -2.294832    0.059881
H      4.323187   -2.507305   -0.268682
H      4.664869    1.765561   -0.617658
H      2.235731    1.993289   -0.316313
H      6.498699   -1.394448   -0.643004
