17

C      1.073505    0.494084   -0.436245
C      0.581800   -0.912269   -0.213440
O      1.296166   -1.729755    0.426952
C     -0.612853   -1.419536   -0.912047
C     -1.836336   -0.875281   -0.849780
C     -2.245426    0.195328    0.076653
O     -3.306869    0.833670   -0.151896
O     -1.516339    0.468150    1.229786
C      1.721483    1.055045    0.795734
O      1.073094    1.820058    1.556859
O      3.033052    0.720112    1.120158
H      1.816179    0.482225   -1.261684
H      0.242138    1.158017   -0.754905
H     -0.479108   -2.293553   -1.537602
H     -2.603662   -1.288965   -1.493176
H     -1.814150    1.190368    1.874632
H      3.577326    0.102303    0.530000
