31

C      2.754413   -1.289031    0.426272
C      4.030005   -1.218216    0.994644
C      4.476920   -0.028068    1.576193
C      3.638446    1.093967    1.593451
C      2.362118    1.025935    1.026739
C      1.914188   -0.160398    0.421873
C      0.549769   -0.216184   -0.150506
C      0.277718   -0.854633   -1.375997
C     -1.044189   -0.883284   -1.847015
O     -1.301594   -1.461679   -2.937824
C     -2.064139   -0.259082   -1.099914
C     -3.420272   -0.239323   -1.506394
C     -4.375342    0.411393   -0.711233
C     -4.002543    1.041472    0.478092
C     -2.664527    1.024815    0.885132
C     -1.697857    0.380326    0.107693
O     -0.435318    0.374886    0.519539
O     -4.970596    1.681490    1.248880
O     -3.824581   -0.858615   -2.689754
O      1.314006   -1.422545   -2.121542
O      5.750711    0.027908    2.137262
H      2.418238   -2.231835    0.014469
H      4.668727   -2.092363    0.990987
H      3.973634    2.018082    2.046935
H      1.727650    1.903680    1.049670
H     -5.413449    0.428604   -1.019047
H     -2.374161    1.512010    1.807871
H     -4.733711    2.147899    2.116791
H     -4.791942   -0.851445   -2.991657
H      1.154754   -1.880868   -3.010697
H      6.102924    0.875098    2.567498
