32

C      6.003749   -1.390431    1.106488
O      5.297825   -0.155660    1.039833
C      3.911474   -0.045101    0.856375
C      3.346726    1.234113    0.809610
C      1.970594    1.397839    0.628344
C      1.133797    0.278687    0.484339
C      1.698926   -1.006689    0.538081
C      3.075500   -1.169285    0.720285
C     -0.328837    0.455735    0.300570
C     -1.040738    1.321821    1.146165
O     -2.350610    1.490927    1.004665
C     -3.058291    0.864563    0.071212
C     -2.426412   -0.022592   -0.828849
C     -1.039727   -0.220298   -0.709976
O     -0.434091   -0.981628   -1.514501
C     -3.195127   -0.671870   -1.812323
C     -4.571616   -0.440904   -1.893305
C     -5.194864    0.438671   -0.997766
C     -4.436575    1.088678   -0.018731
O     -6.565928    0.673526   -1.072697
H      5.636725   -1.994301    1.963146
H      7.083338   -1.183295    1.254594
H      5.876618   -1.954599    0.158439
H      3.978860    2.106982    0.913262
H      1.560490    2.399428    0.587340
H      1.072744   -1.886385    0.455704
H      3.478139   -2.172223    0.758305
H     -0.528642    1.859006    1.934230
H     -2.737248   -1.356068   -2.516117
H     -5.153748   -0.946355   -2.653356
H     -4.919292    1.768848    0.672194
H     -7.143758    0.218862   -1.770043
