49

C     -3.060761    2.502443    1.113729
C     -3.300245    1.263103    0.279066
C     -2.271106    0.642436   -0.358573
C     -2.487046   -0.579347   -1.271512
C     -3.869955   -1.246956   -1.031527
C     -4.982263   -0.211740   -0.903777
C     -4.700842    0.691850    0.292108
C     -2.374716   -0.122945   -2.746166
C     -1.404712   -1.652990   -1.014352
C     -0.928986    1.275384   -0.336373
C      0.037972    0.820814    0.469820
C      1.398420    1.409535    0.503987
C      2.438113    0.581880    0.732660
C      3.857354    1.015289    0.742679
C      4.885398    0.196318    1.012034
C      4.749371   -1.219778    1.417853
C      5.420862   -2.147766    0.705238
C      5.422757   -3.604147    0.950540
O      4.785804   -4.136907    1.898118
C      3.958927   -1.554234    2.658213
C      1.596344    2.887493    0.262181
H     -3.991094    2.832195    1.623630
H     -2.297457    2.297099    1.895699
H     -2.709362    3.333520    0.463527
H     -4.117943   -1.948389   -1.862761
H     -3.848264   -1.849398   -0.092879
H     -5.952973   -0.730956   -0.750199
H     -5.066919    0.396038   -1.829906
H     -5.446121    1.517583    0.286221
H     -4.839510    0.115179    1.232511
H     -1.355879    0.262533   -2.967473
H     -3.095188    0.691248   -2.971346
H     -2.576205   -0.968393   -3.439873
H     -1.388164   -1.943366    0.059761
H     -0.393086   -1.288750   -1.303126
H     -1.615297   -2.570483   -1.610089
H     -0.756648    2.123351   -0.988242
H     -0.153781   -0.058937    1.078340
H      2.227552   -0.471106    0.871602
H      4.104461    2.030748    0.461037
H      5.890500    0.581402    0.880692
H      6.005731   -1.819696   -0.147400
H      5.988708   -4.237799    0.281339
H      3.544480   -0.636642    3.127361
H      3.109024   -2.222266    2.402844
H      4.615018   -2.050124    3.405807
H      0.637425    3.444063    0.321574
H      2.047517    3.042291   -0.739913
H      2.262787    3.319318    1.040763
