26

C      4.344275   -0.861436    0.207468
C      3.111880   -0.153054    0.668114
O      3.202894    0.742897    1.550877
N      1.843813   -0.469126    0.078897
C      0.622722    0.123337    0.551771
C     -0.547744    0.031297   -0.113285
C     -1.816106    0.548989    0.553225
C     -2.578472    1.544725   -0.345408
O     -1.759460    2.631204   -0.686662
C     -2.682142   -0.603122    0.989247
O     -3.637585   -1.005847    0.271101
O     -2.394640   -1.258468    2.182620
C     -0.622209   -0.551793   -1.476511
O     -1.623401   -1.235178   -1.819860
O      0.385462   -0.304330   -2.405159
H      5.201248   -0.628861    0.874861
H      4.591354   -0.539296   -0.825419
H      4.171455   -1.957914    0.217012
H      1.820253   -1.216892   -0.649249
H      0.640814    0.621424    1.514199
H     -1.557659    1.110617    1.479196
H     -3.490473    1.909016    0.181374
H     -2.915597    1.050382   -1.280776
H     -1.692331    3.202205    0.122738
H     -2.952060   -2.046384    2.490224
H      0.333709   -0.684395   -3.342702
