48

C     -3.277959   -0.146101   -1.901237
C     -2.685714    0.218930   -0.530449
C     -3.736850    0.070254    0.611758
C     -3.184913    0.493128    2.011120
C     -1.693702    0.122737    2.254861
C     -0.863265    0.297870    0.960237
C     -1.458635   -0.620590   -0.110826
C     -0.317468   -0.844927   -1.148545
C      1.002786   -0.383434   -0.447788
C      0.608056   -0.100982    1.031846
C      1.539320    0.873484    1.827960
C      2.585544    1.674260    1.004433
C      2.885754    1.057553   -0.379934
C      1.560718    0.893034   -1.098285
C      3.358796   -0.370151   -0.270135
C      4.600467   -0.751490    0.051937
C      2.228659   -1.325640   -0.492962
O      3.753456    1.854625   -1.148056
C     -0.293138   -2.275358   -1.627608
O     -0.159521   -3.224688   -0.808144
O     -0.413029   -2.548261   -2.986593
O     -1.054891    1.614312    0.438538
C     -2.104695    1.588875   -0.460395
O     -2.546474    2.610273   -1.049572
H     -4.223831    0.411691   -2.068697
H     -2.587895    0.112758   -2.729775
H     -3.497293   -1.234148   -1.942614
H     -4.634018    0.686230    0.382299
H     -4.074313   -0.988474    0.664622
H     -3.812838    0.040634    2.808286
H     -3.289079    1.596139    2.107984
H     -1.630611   -0.930088    2.607893
H     -1.283514    0.770432    3.058501
H     -1.771187   -1.599750    0.324503
H     -0.492248   -0.205181   -2.038653
H      0.624394   -1.072975    1.578846
H      2.103540    0.265131    2.569185
H      0.932502    1.585811    2.426848
H      3.527640    1.757770    1.589675
H      2.207739    2.710491    0.858141
H      0.904871    1.782522   -0.995527
H      1.733475    0.724783   -2.187051
H      4.846469   -1.805385    0.134745
H      5.377073   -0.019149    0.243786
H      2.195612   -2.111425    0.292733
H      2.349996   -1.795377   -1.493070
H      4.556807    2.041510   -0.596505
H     -0.396591   -3.501661   -3.328317
