23

C     -2.759191    1.738464    0.553282
O     -2.715311    0.523387   -0.187964
C     -1.545589   -0.205225   -0.458682
C     -1.646513   -1.394651   -1.202009
C     -0.498917   -2.134712   -1.496333
C      0.752432   -1.706367   -1.051759
C      0.877102   -0.533144   -0.293423
C     -0.278588    0.222753   -0.011398
C      2.230900   -0.116190    0.148777
C      2.457206    0.704701    1.181419
C      3.824720    1.064254    1.573086
O      4.017386    1.824454    2.557468
O     -2.880469   -1.855675   -1.660810
H     -3.810660    2.085770    0.617323
H     -2.158043    2.519754    0.042037
H     -2.376748    1.572255    1.582549
H     -0.577798   -3.047461   -2.073367
H      1.626327   -2.299513   -1.293188
H     -0.193847    1.152244    0.530383
H      3.082037   -0.540409   -0.373176
H      1.641691    1.102111    1.770048
H      4.676371    0.682998    1.023531
H     -3.744498   -1.359799   -1.477792
