18

C      0.152019   -0.738338    0.630254
C     -0.816593    0.240929   -0.050157
C     -2.149692    0.290936    0.712851
O     -3.051851    1.154001    0.074726
O     -0.240787    1.522315   -0.081788
C      1.424960   -0.879781   -0.159563
O      1.466701   -1.710718   -1.106184
C      2.605917   -0.040360    0.125270
O      2.569515    0.810442    1.053096
O      3.773604   -0.172720   -0.623002
H     -0.327007   -1.738987    0.710651
H      0.375862   -0.397361    1.664654
H     -1.010716   -0.122333   -1.087742
H     -1.974482    0.663597    1.744940
H     -2.590493   -0.729524    0.789729
H     -3.382884    0.674790   -0.729364
H     -0.674427    2.015974   -0.826028
H      3.850354   -0.842863   -1.378531
