41

C     -0.051463   -1.860034   -1.795057
C     -1.150349   -1.000329   -1.202708
C     -0.945669   -0.217475   -0.092462
C     -2.123392    0.507279    0.607873
C     -3.360948    0.642904   -0.322024
C     -3.654578   -0.649504   -1.069857
C     -2.467411   -0.998195   -1.954098
C     -1.721917    1.940058    1.029821
C     -2.518972   -0.286832    1.875566
C      0.428728   -0.187534    0.578974
C      1.352979    0.856085   -0.068066
C      2.747485    0.766108    0.501250
C      3.576595   -0.199132    0.081859
O      4.877870   -0.290524    0.585776
C      5.782333   -1.278467    0.188289
O      5.452683   -2.177587   -0.630436
C      3.203793    1.764093    1.531297
H      0.230060   -2.662002   -1.080937
H     -0.384725   -2.354153   -2.732931
H      0.839290   -1.254127   -2.050231
H     -3.189433    1.446849   -1.074266
H     -4.261157    0.939022    0.260835
H     -4.554980   -0.509570   -1.706878
H     -3.867054   -1.480011   -0.363926
H     -2.396247   -0.259675   -2.781665
H     -2.656637   -1.995232   -2.407188
H     -0.925536    1.941285    1.802593
H     -1.365141    2.517959    0.150689
H     -2.594367    2.477561    1.461526
H     -2.733427   -1.347741    1.631102
H     -1.705417   -0.276595    2.630283
H     -3.419720    0.153933    2.354874
H      0.335727    0.056750    1.656489
H      0.898622   -1.192841    0.560701
H      1.394706    0.731092   -1.169655
H      0.942395    1.871144    0.108353
H      3.233366   -0.913323   -0.658975
H      6.783155   -1.274374    0.597686
H      3.512508    1.233821    2.457440
H      4.064456    2.345788    1.138008
H      2.391790    2.473525    1.796280
