36

C      0.021179    4.661371    0.203601
O     -0.538673    3.352387    0.169893
C      0.196019    2.170850   -0.030268
C     -0.478079    0.908464   -0.045456
C      0.272473   -0.277202   -0.250749
C      1.650724   -0.183172   -0.435319
C      2.643291   -1.272099   -0.662914
C      2.854564   -2.100592    0.560449
C      4.052524   -1.875275    1.062556
O      4.754328   -0.946386    0.315036
C      3.979890   -0.493451   -0.785332
O      3.644590    0.884772   -0.624176
C      2.286478    1.022031   -0.422208
C      1.598175    2.212374   -0.223071
O     -0.314342   -1.463953   -0.256556
C     -1.620464   -1.623705   -0.096177
C     -2.135324   -2.922459   -0.086217
C     -3.497086   -3.137903    0.099100
C     -4.361771   -2.055302    0.238588
C     -3.883070   -0.740141    0.191433
C     -2.478967   -0.504204    0.071785
C     -1.873297    0.776698    0.145212
O     -2.561484    1.795333    0.416903
O     -4.844011    0.274260    0.234966
H     -0.790006    5.397515    0.377843
H      0.756718    4.741089    1.031716
H      0.508665    4.893509   -0.766761
H      2.414484   -1.883547   -1.561913
H      2.132357   -2.784990    0.986060
H      4.443680   -2.353432    1.950417
H      4.499607   -0.675592   -1.750053
H      2.148460    3.142869   -0.220612
H     -1.472221   -3.770022   -0.208122
H     -3.886964   -4.147493    0.118600
H     -5.423299   -2.238046    0.350411
H     -4.699147    1.215442   -0.098667
