40

C      4.485013   -0.460082    0.984167
C      4.822381   -0.274485   -0.477282
C      3.989376   -0.694886   -1.455541
C      2.657271   -1.353989   -1.200859
N      1.673831   -0.382139   -0.724405
C      0.353787   -0.784658   -0.335660
C     -0.578838    0.135700    0.131105
C     -1.816220   -0.277456    0.488421
N     -2.207345   -1.572211    0.410171
C     -1.300290   -2.487463   -0.045837
N     -0.038114   -2.093724   -0.412022
N     -2.538988    0.773341    0.893712
C     -1.691649    1.824899    0.754250
N     -0.462970    1.468664    0.286729
C     -3.942515    0.807600    1.303152
C     -4.846020    1.235168    0.129663
C     -4.769555    0.255128   -1.012345
O     -4.307290    0.627161   -2.123067
O     -5.193117   -1.063557   -0.862019
N     -6.237448    1.382403    0.561042
C      6.128347    0.375874   -0.863340
O      5.873549    1.590297   -1.512835
H      3.538307    0.064401    1.228849
H      5.278410   -0.047244    1.641089
H      4.379773   -1.540601    1.215384
H      4.282558   -0.558312   -2.493622
H      2.773520   -2.176119   -0.462850
H      2.290511   -1.798410   -2.150753
H      1.928565    0.631186   -0.673434
H     -1.579922   -3.529275   -0.119343
H     -1.965363    2.847402    0.979984
H     -4.248474   -0.188570    1.690401
H     -4.055638    1.533544    2.137497
H     -4.492309    2.226916   -0.233535
H     -5.559606   -1.407624    0.016690
H     -6.541801    0.521352    1.071410
H     -6.292839    2.176325    1.240005
H      6.760310    0.562827    0.032642
H      6.691382   -0.306177   -1.539498
H      6.759418    1.956795   -1.769689
