22

C      3.317240    0.737077   -1.130829
O      2.789655   -0.013856   -0.042066
C      1.420688   -0.178057    0.223832
C      1.033853   -0.948826    1.337876
C     -0.322141   -1.132511    1.631429
C     -1.305100   -0.554917    0.824855
C     -0.928372    0.218472   -0.292706
C      0.428317    0.405096   -0.590497
C     -1.935651    0.784070   -1.081513
C     -3.271540    0.569460   -0.744062
C     -3.569882   -0.209108    0.379169
O     -4.769373   -0.414724    0.700687
O     -2.592111   -0.735455    1.112347
O      1.985815   -1.541811    2.167212
H      4.425125    0.695746   -1.096174
H      2.998799    1.798078   -1.052931
H      2.975647    0.303981   -2.094644
H     -0.610791   -1.726562    2.489844
H      0.703402    1.000920   -1.451141
H     -1.692308    1.385361   -1.949283
H     -4.061932    1.001168   -1.345655
H      2.980660   -1.443602    2.004249
