46

C     -0.134306    2.648958    0.710970
O     -0.197399    1.364206    0.099452
C      0.900686    0.515853   -0.108713
C      0.713066   -0.756021   -0.707274
C      1.824912   -1.574202   -0.933808
C      3.107744   -1.166927   -0.570515
C      3.312087    0.088479    0.024044
C      2.203065    0.914291    0.260370
C      4.654630    0.563630    0.442624
C      5.804510    0.082606   -0.046728
C      7.126557    0.618261    0.417412
O      7.248497    1.976137    0.090973
O     -0.535453   -1.273348   -1.101870
C     -1.825105   -0.729406   -0.822386
C     -2.894210   -1.648005   -1.452709
C     -4.225368   -1.612928   -0.651318
C     -4.421141   -0.270815    0.091164
C     -3.141148    0.139821    0.889462
O     -2.014410   -0.667452    0.577791
C     -3.386079    0.066269    2.403709
O     -2.233260    0.444705    3.107227
O     -4.717729    0.738711   -0.842000
O     -4.307362   -2.692702    0.248716
O     -3.115581   -1.242951   -2.779970
H     -1.153780    3.084154    0.745741
H      0.247368    2.558683    1.749832
H      0.517659    3.323774    0.117291
H      1.689182   -2.548605   -1.386623
H      3.926493   -1.852777   -0.736236
H      2.365240    1.878852    0.722777
H      4.701338    1.377042    1.158623
H      5.813378   -0.693725   -0.799003
H      7.954010    0.035355   -0.046402
H      7.206405    0.501177    1.518992
H      7.412290    2.019023   -0.887545
H     -1.890638    0.281793   -1.289784
H     -2.508287   -2.695873   -1.451029
H     -5.071964   -1.738849   -1.361853
H     -5.289472   -0.379635    0.784620
H     -2.896648    1.203543    0.664903
H     -3.647322   -0.974672    2.689628
H     -4.239081    0.723781    2.689514
H     -2.167354    1.432799    3.035342
H     -5.664523    0.614999   -1.114991
H     -3.508751   -2.670250    0.835875
H     -3.542746   -2.007759   -3.247626
