38

C      4.861035    2.553560   -1.646147
O      5.019125    1.291455   -1.006019
C      3.958141    0.497311   -0.545259
C      4.258640   -0.721608    0.062946
C      3.250052   -1.571662    0.531523
C      1.887140   -1.156977    0.456358
C      1.591854    0.068544   -0.188963
C      2.616306    0.879645   -0.683803
O      0.338440    0.475026   -0.333254
C     -0.708868   -0.202996    0.118005
C     -0.520859   -1.394689    0.844135
C      0.800976   -1.866536    1.024935
O      1.006320   -2.887550    1.729220
O     -1.657396   -2.031886    1.382751
C     -1.683545   -3.265176    2.093476
C     -2.056635    0.351665   -0.144143
C     -2.275835    1.731988   -0.005391
C     -3.537575    2.283290   -0.271450
C     -4.585814    1.456198   -0.693692
C     -4.367082    0.081831   -0.854459
C     -3.109714   -0.466969   -0.588908
O     -5.838886    2.007063   -0.955909
O     -3.755918    3.651427   -0.119448
O      3.660226   -2.813637    1.025063
H      5.861748    2.959154   -1.899938
H      4.277081    2.435878   -2.583359
H      4.350880    3.266353   -0.964287
H      5.293854   -1.030403    0.143497
H      2.354503    1.813031   -1.164339
H     -1.259034   -4.078728    1.468249
H     -1.128782   -3.169634    3.050291
H     -2.736971   -3.520509    2.328716
H     -1.470115    2.378826    0.320800
H     -5.169245   -0.561225   -1.193647
H     -2.956000   -1.525976   -0.752981
H     -6.615787    1.434008   -1.264026
H     -3.017629    4.275733    0.183974
H      3.065367   -3.625819    1.095481
