13

C      0.449362    0.794178    0.467747
C     -0.863732    0.955737    0.692560
C     -1.940603    0.107294    0.150705
O     -3.108195    0.573158    0.072384
O     -1.708140   -1.220515   -0.196277
C      1.051018   -0.114791   -0.528783
O      0.419249   -0.448196   -1.566604
N      2.397031   -0.557015   -0.358185
H      1.132161    1.416176    1.033792
H     -1.161926    1.751740    1.364497
H     -2.458211   -1.806755   -0.542578
H      2.843400   -1.174395   -1.072295
H      2.948588   -0.276617    0.483038
