27

C      2.369135   -0.707523   -0.719690
C      2.106988    0.465190    0.229581
C      2.754020    0.215946    1.597099
C      0.615581    0.755434    0.374251
C      0.152533    1.969905    0.017588
C     -0.286474   -0.236343    1.100841
C     -1.744237   -0.151570    0.710342
C     -2.272092   -0.521280   -0.474764
C     -3.716349   -0.201983   -0.743694
C     -1.498757   -1.147262   -1.568934
O     -0.459774   -1.820275   -1.349461
H      3.460881   -0.812900   -0.896780
H      1.880355   -0.520896   -1.699476
H      1.995102   -1.662241   -0.295201
H      2.622852    1.347963   -0.211853
H      2.353264   -0.708064    2.065848
H      2.559442    1.076077    2.272941
H      3.853733    0.105582    1.483932
H      0.802246    2.707429   -0.443340
H     -0.879775    2.258590    0.184917
H     -0.215530   -0.005218    2.185239
H      0.076220   -1.277428    0.991498
H     -2.399688    0.307036    1.443072
H     -4.339124   -0.419476    0.150680
H     -3.815848    0.872739   -1.004204
H     -4.109249   -0.811946   -1.584983
H     -1.865455   -1.077487   -2.584795
