44

C     -2.909063    2.181445    2.132901
C     -2.233947    1.349302    1.078012
C     -2.747507    1.366656   -0.170210
C     -2.257205    0.565402   -1.346765
C     -2.489058   -0.955443   -1.197207
C     -1.194304   -1.717981   -1.368969
C     -0.785748   -2.044849   -2.608591
C     -0.299427   -1.801134   -0.145028
C      0.902356   -2.751772   -0.103935
C      1.831179   -1.556746    0.188195
C      0.637400   -0.586041   -0.036663
C      0.274869    0.510420    1.024387
C     -1.152419    0.437179    1.531003
O     -1.405917   -0.344213    2.488020
O      0.491872    1.808581    0.466172
C      1.758506    2.362629    0.254123
O      2.797959    1.773052    0.654513
C      1.872955    3.696934   -0.399528
C      2.405647   -1.626591    1.616354
C      2.947017   -1.408625   -0.862112
H     -3.832155    1.669169    2.476817
H     -3.174133    3.183795    1.732847
H     -2.236343    2.332492    3.004155
H     -3.580867    2.031151   -0.371767
H     -2.813342    0.908045   -2.246467
H     -1.201624    0.829378   -1.547697
H     -2.931841   -1.198221   -0.206395
H     -3.234416   -1.296870   -1.949652
H      0.193908   -2.454745   -2.812091
H     -1.430332   -1.868605   -3.464493
H     -0.903495   -1.997754    0.763325
H      1.129637   -3.274142   -1.053774
H      0.828587   -3.477694    0.736746
H      0.756595   -0.099807   -1.031624
H      0.917444    0.426026    1.922236
H      0.982679    3.883669   -1.036008
H      1.936861    4.485574    0.378545
H      2.782349    3.733257   -1.035744
H      3.094720   -2.493569    1.703464
H      2.979824   -0.705673    1.849503
H      1.597828   -1.756361    2.368575
H      2.532783   -1.412812   -1.893431
H      3.492720   -0.454938   -0.707095
H      3.667449   -2.249572   -0.774650
