43

C     -2.998412   -0.441327    1.228573
C     -1.638800    0.056104    1.760045
C     -0.689551   -1.167322    1.851048
C     -1.813214    0.554892    3.192474
C     -0.809142    1.105658    3.887212
C     -1.147704    1.209131    0.832389
C     -1.739298    2.497164    0.954413
C     -1.296390    3.565898    0.173222
C     -0.303061    3.395341   -0.786796
C      0.247855    2.116408   -1.002843
C     -0.190567    1.020885   -0.210893
O      0.298299   -0.189495   -0.459160
C      1.205976   -0.457786   -1.390741
C      1.693067    0.573226   -2.206550
C      1.213309    1.872409   -2.005050
O      1.644965    2.807295   -2.733550
O      2.614912    0.296878   -3.219753
C      1.661367   -1.857222   -1.539327
C      0.721229   -2.900366   -1.491755
C      1.135668   -4.231104   -1.602725
C      2.491767   -4.532402   -1.750867
C      3.436380   -3.503507   -1.782623
C      3.026517   -2.171061   -1.672229
O      0.116251    4.498159   -1.533223
O     -2.784921    2.722697    1.851786
H     -3.386094   -1.275242    1.853762
H     -2.894592   -0.807250    0.183928
H     -3.754563    0.372056    1.235285
H     -0.980850   -1.828445    2.697232
H     -0.746886   -1.803323    0.943691
H      0.360957   -0.846855    2.020198
H     -2.782132    0.467740    3.677984
H     -0.975814    1.448397    4.903090
H      0.176688    1.224005    3.448432
H     -1.741763    4.543984    0.307554
H      2.979767    1.016098   -3.832633
H     -0.334359   -2.683597   -1.382519
H      0.404932   -5.029000   -1.573317
H      2.811122   -5.563125   -1.834939
H      4.487926   -3.738792   -1.884627
H      3.776755   -1.390674   -1.667151
H     -0.276388    5.421502   -1.390337
H     -3.221209    3.631967    1.951292
