30

C      4.772075    1.630129    0.021425
O      4.361357    0.266856    0.042518
C      3.025480   -0.159875   -0.001837
C      2.766724   -1.530547    0.023314
C      1.459269   -2.026477   -0.036490
C      0.360022   -1.118447   -0.046691
C      0.634069    0.269246   -0.096955
C      1.950609    0.737472   -0.079743
O     -0.350914    1.154155   -0.141180
C     -1.634038    0.820053   -0.148533
C     -2.601959    1.838203   -0.181671
C     -3.955877    1.511131   -0.161601
C     -4.356823    0.178222   -0.143829
C     -3.415025   -0.855846   -0.152552
C     -2.023784   -0.543301   -0.102395
C     -0.998191   -1.510960    0.036856
O     -1.291567   -2.701282    0.317835
O     -3.914264   -2.157561   -0.253392
O     -2.234816    3.183591   -0.224308
O      1.318682   -3.414460   -0.124069
H      4.355190    2.168176    0.898903
H      5.879279    1.675924    0.069862
H      4.437080    2.115342   -0.919623
H      3.597805   -2.224722    0.053177
H      2.123329    1.805117   -0.110928
H     -4.702582    2.295055   -0.176512
H     -5.413914   -0.056248   -0.161917
H     -3.379694   -2.946872   -0.586149
H     -1.265972    3.479095   -0.238551
H      0.498450   -3.881168   -0.482975
