33

C     -2.978955   -0.092355    0.476780
O     -2.814633   -1.108623   -0.505248
C     -1.613991   -1.462212   -1.149889
C     -1.702240   -2.422564   -2.165857
C     -0.560659   -2.831882   -2.859059
C      0.693040   -2.296013   -2.552515
C      0.811459   -1.329994   -1.528263
C     -0.348575   -0.910526   -0.823878
O     -0.238189   -0.005811    0.146530
C      0.915113    0.542608    0.521124
C      2.097174    0.182650   -0.138493
C      2.047668   -0.755411   -1.166357
O      3.117585   -1.070225   -1.754456
C      0.916488    1.530859    1.627397
C      2.018764    1.660375    2.495878
C      1.991294    2.589397    3.540750
C      0.866399    3.393671    3.734775
C     -0.235538    3.267949    2.886496
C     -0.213697    2.340203    1.840747
O      1.811739   -2.728839   -3.266240
O     -2.944445   -2.970074   -2.485004
H     -2.681726    0.891084    0.057995
H     -4.049593   -0.038615    0.761286
H     -2.391596   -0.334589    1.387146
H     -0.649227   -3.573825   -3.642918
H      3.044532    0.638044    0.122108
H      2.891832    1.030694    2.386751
H      2.841063    2.680882    4.204922
H      0.847199    4.111563    4.544550
H     -1.107532    3.891031    3.037998
H     -1.073590    2.268464    1.188928
H      1.740238   -3.421494   -4.002567
H     -3.047399   -3.666423   -3.214052
