19

C      1.619538    1.473155    0.297803
C      2.840405    0.825855    0.485408
C      2.876936   -0.572539    0.462097
O      3.969191   -1.175372    0.629447
O      1.762443   -1.272134    0.263760
C      0.577574   -0.694143    0.080622
C     -0.559949   -1.480924   -0.123347
C     -1.811803   -0.877841   -0.316983
C     -1.923717    0.524790   -0.306002
C     -0.786206    1.315106   -0.101979
C      0.464248    0.712752    0.091463
O     -3.155782    1.149800   -0.495936
O     -2.943403   -1.666219   -0.520009
H      1.578477    2.555667    0.313741
H      3.743497    1.401654    0.646300
H     -0.471362   -2.560267   -0.131395
H     -0.881659    2.394615   -0.095075
H     -4.008284    0.624146   -0.647454
H     -2.890142   -2.678102   -0.532461
