32

C     -4.657080    0.451672    0.544965
C     -4.271050   -0.881919    0.416104
C     -2.919562   -1.202861    0.281269
C     -1.953340   -0.194767    0.247162
C     -2.330111    1.170668    0.357218
C     -3.709392    1.482787    0.549276
O     -4.194767    2.774873    0.771793
C     -1.296487    2.129713    0.232400
O     -1.531204    3.365670    0.215100
C      0.025802    1.708407    0.087058
C      0.314586    0.338790    0.033066
O     -0.678533   -0.540929    0.102122
C      1.707998   -0.152453   -0.116606
C      2.775195    0.528928    0.499352
C      4.090682    0.061130    0.377717
C      4.351807   -1.101971   -0.362043
C      3.298038   -1.788173   -0.970451
C      1.980372   -1.323920   -0.854004
O      0.947011   -2.018425   -1.483782
O      5.650056   -1.591655   -0.502061
O      5.137380    0.746178    0.993242
O     -5.240358   -1.882548    0.431394
H     -5.706141    0.689671    0.672112
H     -2.617494   -2.239087    0.189975
H     -3.632273    3.561117    1.058630
H      0.812487    2.445743   -0.019099
H      2.588916    1.412389    1.096629
H      3.505745   -2.685375   -1.540212
H      1.121042   -2.859376   -2.021712
H      6.447579   -1.130991   -0.080391
H      4.976317    1.588028    1.533841
H     -4.993221   -2.861314    0.342556
