41

C      5.592553    0.964786   -0.877901
C      4.917211   -0.335066   -0.509886
C      3.696420   -0.358438    0.065330
C      2.911996    0.890407    0.385713
C      1.594614    0.543003    1.032269
C      0.443660    0.412522    0.236198
C     -0.776533    0.060137    0.822936
C     -0.859921   -0.178334    2.218574
C      0.289762   -0.061567    3.003119
C      1.516430    0.290257    2.418589
O      2.660016    0.386196    3.211617
O     -2.027643   -0.516615    2.786491
C     -3.161147   -0.648515    2.090586
O     -4.229437   -0.967893    2.674761
C     -3.128003   -0.425614    0.714866
C     -1.953711   -0.077126    0.091820
O     -2.132331    0.088106   -1.205199
C     -3.408125   -0.147496   -1.440653
C     -4.077993   -0.472591   -0.279453
C     -5.440144   -0.765182   -0.269266
C     -6.126001   -0.719287   -1.496709
C     -5.443621   -0.385917   -2.693535
C     -4.065522   -0.095673   -2.667129
O     -6.127132   -0.341838   -3.906243
C      5.612462   -1.642926   -0.786145
H      4.968925    1.523006   -1.607252
H      6.586181    0.790869   -1.340555
H      5.742416    1.584774    0.030733
H      3.254801   -1.322773    0.310296
H      3.502595    1.540747    1.066045
H      2.734126    1.464859   -0.549283
H      0.501125    0.583947   -0.832569
H      0.231919   -0.249505    4.068070
H      2.631903    0.208001    4.208738
H     -5.957998   -1.019276    0.645855
H     -7.185046   -0.941696   -1.521132
H     -3.530601    0.160506   -3.572538
H     -7.118308   -0.544775   -3.962365
H      6.604842   -1.488902   -1.258604
H      5.762272   -2.196360    0.165086
H      4.992985   -2.259702   -1.471275
