37

C     -4.056866   -1.031084    1.573797
C     -4.821300   -1.005799    0.404041
C     -4.540429   -0.070609   -0.596893
C     -3.493399    0.851177   -0.430157
C     -2.726330    0.816400    0.747161
C     -3.009607   -0.121592    1.744550
C     -3.164430    1.830597   -1.525811
C     -2.322513    1.188451   -2.632888
O     -1.039698    0.802116   -2.139411
C     -0.758410   -0.464495   -1.609455
O     -1.614082   -1.388616   -1.669094
C      0.539555   -0.733962   -0.972774
C      1.485346    0.208972   -0.866787
C      2.807209   -0.018352   -0.232672
C      3.029882   -1.043255    0.709310
C      4.294678   -1.211779    1.292323
C      5.344577   -0.353299    0.945520
C      5.125421    0.676345    0.022452
C      3.865538    0.845823   -0.557153
O      6.600268   -0.526816    1.524851
O      4.513620   -2.228042    2.220916
H     -4.273906   -1.757401    2.346297
H     -5.629080   -1.713758    0.271004
H     -5.133285   -0.067657   -1.503204
H     -1.903780    1.506839    0.887185
H     -2.414418   -0.146035    2.648188
H     -4.108114    2.217171   -1.968619
H     -2.618427    2.706490   -1.111828
H     -2.170826    1.943458   -3.432814
H     -2.855466    0.326197   -3.090477
H      0.713192   -1.735202   -0.603053
H      1.303020    1.186278   -1.298868
H      2.228017   -1.699556    1.017524
H      5.931329    1.347385   -0.246416
H      3.719168    1.649483   -1.268810
H      7.378714    0.079667    1.294388
H      3.774828   -2.865541    2.494182
