31

C      3.339153    0.411956    1.380464
C      4.509025   -0.245350    0.991513
C      4.606227   -0.824337   -0.277091
C      3.523568   -0.736220   -1.167901
C      2.348856   -0.077557   -0.775102
C      2.240684    0.485028    0.510761
C      1.026249    1.205543    0.955149
C     -0.216816    0.862439    0.598445
C     -1.446478    1.535569    1.014374
O     -1.537549    2.551660    1.752679
C     -2.534391    0.787513    0.400043
C     -3.925944    0.951690    0.430828
C     -4.712328    0.033590   -0.288006
C     -4.109832   -1.018430   -1.015760
C     -2.711181   -1.157935   -1.027996
C     -1.946332   -0.241211   -0.311495
O     -0.557648   -0.223425   -0.209242
O     -4.893112   -1.925013   -1.726103
O     -4.541789    1.980895    1.140938
O      3.619926   -1.296861   -2.440691
O      5.785274   -1.476515   -0.636392
H      3.286578    0.854391    2.368009
H      5.343993   -0.303975    1.678238
H      1.540672    0.017078   -1.487679
H      1.151611    2.019746    1.659457
H     -5.790177    0.136156   -0.282146
H     -2.236488   -1.958360   -1.580619
H     -5.903866   -1.854350   -1.739212
H     -4.017153    2.663624    1.671248
H      2.854258   -1.246677   -3.102611
H      5.905008   -1.910661   -1.543713
