48

C      5.331492    1.241011    0.936567
C      4.191311    0.596980    0.419044
C      4.354852   -0.504067   -0.444081
C      5.637442   -0.941906   -0.788527
C      6.769243   -0.293997   -0.276085
C      6.614157    0.800900    0.590593
O      7.721973    1.464011    1.117791
O      8.045356   -0.734769   -0.623339
O      3.296750   -1.140606   -0.925200
C      2.048077   -0.778282   -0.653507
C      1.775017    0.348713    0.161090
C      2.886240    1.009635    0.744788
O      2.727461    1.935905    1.584713
C      0.416005    0.726801    0.373670
C     -0.631918   -0.098247   -0.105600
C     -0.321754   -1.219704   -0.903906
C      1.007501   -1.537225   -1.181833
O     -1.339122   -2.014794   -1.433986
C     -2.086599    0.272993    0.157586
C     -2.705845    0.942163   -1.095139
C     -4.194609    1.257442   -0.848736
C     -4.917198    0.003704   -0.328348
C     -4.142696   -0.580824    0.876541
O     -2.809671   -0.896064    0.508973
C     -4.815929   -1.854451    1.413381
O     -4.875929   -2.852039    0.428225
O     -6.222384    0.341212    0.068006
O     -4.799213    1.680408   -2.043766
O     -2.001606    2.108053   -1.447307
O      0.065413    1.920910    1.013940
H      5.233642    2.087909    1.605055
H      5.754052   -1.789320   -1.452876
H      8.670828    1.185122    0.898840
H      8.183882   -1.522147   -1.246032
H      1.236523   -2.395528   -1.801870
H     -1.139507   -2.822104   -2.012968
H     -2.131667    0.988153    1.010667
H     -2.641263    0.234096   -1.950361
H     -4.283180    2.057299   -0.074497
H     -4.947615   -0.761555   -1.140686
H     -4.148134    0.158506    1.712074
H     -5.848660   -1.622371    1.749680
H     -4.258972   -2.224898    2.304457
H     -3.974745   -3.266080    0.384410
H     -6.773792    0.378120   -0.756717
H     -4.545675    2.631456   -2.173507
H     -2.065725    2.740552   -0.684536
H      0.656191    2.738926    1.050917
