32

C      6.062478    0.226621   -0.106988
O      5.410185   -1.037822    0.066890
C      4.046033   -0.819074    0.055546
C      3.798056    0.500995   -0.115725
O      4.997968    1.180783   -0.215699
C      2.507697    1.025279   -0.151912
C      1.412188    0.103959   -0.048577
C      1.699867   -1.286496    0.151654
C      3.026997   -1.745990    0.205053
O      0.718268   -2.169583    0.282916
C     -0.562558   -1.836502    0.226908
C     -0.952865   -0.511088    0.001567
C      0.048078    0.465912   -0.165941
O     -0.290265    1.641118   -0.466187
C     -2.397399   -0.172785   -0.072739
C     -2.918308    0.906477    0.663187
C     -4.280173    1.215890    0.597299
C     -5.138728    0.448899   -0.200976
C     -4.628609   -0.629207   -0.930401
C     -3.267333   -0.941658   -0.866148
O     -6.497158    0.748398   -0.274745
O      2.378367    2.412839   -0.257608
H      6.694684    0.456571    0.776139
H      6.668252    0.220626   -1.037315
H      3.252033   -2.794844    0.350536
H     -1.307449   -2.610802    0.359519
H     -2.274246    1.499942    1.300202
H     -4.667507    2.048875    1.170092
H     -5.287702   -1.225123   -1.548910
H     -2.890447   -1.775438   -1.445594
H     -6.897363    1.522806    0.241995
H      1.536958    2.930421   -0.055307
