32

C      6.266790    1.227792    0.171185
O      5.368819    0.489950   -0.649500
C      3.997894    0.309323   -0.399846
C      3.298476   -0.414142   -1.282507
C      1.856396   -0.658546   -1.098732
O      1.243219   -1.390587   -1.920867
C      1.148125   -0.067173    0.062520
C      1.845370    0.649060    0.958002
C      3.293283    0.876399    0.786775
O      3.906941    1.552168    1.653346
C     -0.309021   -0.275115    0.250580
C     -0.790740   -0.823634    1.449380
O     -2.091196   -1.021946    1.634302
C     -3.001030   -0.717385    0.715129
C     -2.608061   -0.153688   -0.519903
C     -1.239355    0.073647   -0.745181
O     -0.848569    0.602389   -1.822904
C     -3.588928    0.165354   -1.476665
C     -4.938889   -0.077101   -1.205627
C     -5.324600   -0.637624    0.019638
C     -4.354926   -0.955719    0.976027
O     -6.667889   -0.881845    0.296258
H      5.944363    2.288297    0.235682
H      7.277909    1.197059   -0.283813
H      6.324524    0.772637    1.182236
H      3.798356   -0.836985   -2.145836
H      1.346416    1.086346    1.815446
H     -0.102215   -1.098707    2.238295
H     -3.316489    0.599276   -2.430919
H     -5.685458    0.171390   -1.949214
H     -4.654467   -1.387935    1.922855
H     -7.395047   -0.662955   -0.374729
