45

C      3.399003    1.034129   -4.192836
O      4.350791    0.476893   -3.292161
C      4.069904    0.107346   -1.967334
C      5.104717   -0.432537   -1.190930
C      4.861373   -0.820476    0.132609
C      3.590723   -0.666624    0.689722
C      2.547418   -0.107650   -0.066684
C      2.789028    0.260596   -1.400264
C      1.185205    0.040233    0.494888
C      0.962189    0.560030    1.785902
C     -0.371738    0.641694    2.249756
O     -0.615119    1.082387    3.404505
C     -1.432455    0.231877    1.409716
C     -2.793303    0.288242    1.797582
C     -3.809585   -0.126688    0.909495
C     -3.462384   -0.602484   -0.380625
C     -2.107636   -0.654103   -0.751128
C     -1.105857   -0.246228    0.126624
O      0.158485   -0.319748   -0.266708
O     -4.465674   -1.015689   -1.271791
C     -4.239106   -1.509461   -2.588410
O     -5.138561   -0.040223    1.370009
C     -6.315440   -0.400591    0.655093
O     -3.137455    0.758185    3.069000
O      2.075850    0.996440    2.531766
C      2.054568    1.551221    3.842596
O      6.374491   -0.585238   -1.745341
H      3.892471    1.228333   -5.167051
H      3.011707    1.995002   -3.792889
H      2.562734    0.321401   -4.353901
H      5.656321   -1.250265    0.728772
H      3.419475   -1.005578    1.703545
H      1.979022    0.675893   -1.985431
H     -1.814362   -1.014169   -1.728042
H     -3.736697   -0.735261   -3.205927
H     -3.621915   -2.431799   -2.549911
H     -5.214893   -1.755802   -3.054698
H     -7.197571   -0.212541    1.300623
H     -6.417168    0.222296   -0.258308
H     -6.296809   -1.481539    0.402390
H     -4.094763    0.818170    3.393734
H      1.464303    2.491529    3.852851
H      1.641439    0.815881    4.564594
H      3.093941    1.790305    4.147202
H      7.143330   -0.973389   -1.211346
