44

C     -5.928340   -0.247748    0.725461
C     -4.985085    0.929924    0.659575
C     -3.804365    0.853734    0.010217
C     -3.329467   -0.392974   -0.696298
C     -1.949218   -0.187835   -1.284232
C     -1.808076    0.076130   -2.664053
C     -0.536539    0.259277   -3.217285
C      0.598651    0.198190   -2.413925
C      0.483451   -0.036436   -1.037564
C     -0.791158   -0.221868   -0.463447
O     -0.875960   -0.441101    0.916209
C      1.706483   -0.059394   -0.197823
C      1.842291    0.852065    0.853391
O      2.942061    0.875675    1.591213
C      3.958588    0.043201    1.398718
C      5.087402    0.169657    2.211843
C      6.184217   -0.669349    2.033997
C      6.145046   -1.664575    1.054619
C      5.013655   -1.841677    0.248569
C      3.906444   -0.949810    0.382969
C      2.757867   -0.960297   -0.448396
O      2.661093   -1.751582   -1.423218
O      5.044154   -2.924363   -0.635615
O      7.307988   -0.511820    2.842335
O     -2.932404    0.158772   -3.486453
C     -5.359137    2.225585    1.331461
H     -5.433251   -1.102025    1.232932
H     -6.229323   -0.550635   -0.299305
H     -6.849440   -0.000579    1.292966
H     -3.161769    1.732125   -0.006569
H     -4.061286   -0.661540   -1.486824
H     -3.311787   -1.253117    0.005130
H     -0.427199    0.456501   -4.276217
H      1.571498    0.356070   -2.863637
H     -1.748054   -0.526616    1.420343
H      1.052918    1.561750    1.066787
H      5.116885    0.934581    2.978301
H      6.991476   -2.330047    0.936546
H      4.232829   -3.345193   -1.061678
H      8.121828   -1.107010    2.740637
H     -2.853945    0.348377   -4.478846
H     -4.599423    2.482566    2.099838
H     -6.348654    2.159348    1.829674
H     -5.402946    3.040083    0.577650
