26

C     -3.290237   -0.156520    1.454318
C     -2.479376    0.144601    0.220664
C     -1.238018   -0.374903    0.117705
C     -0.339955   -0.134240   -1.071559
C      0.987525   -0.822745   -0.899098
C      1.998353   -0.358419   -0.136494
C      1.890456    0.945157    0.623715
C      3.266614   -1.132496   -0.119135
C      4.433006   -0.629581    0.286658
C     -3.064005    1.014860   -0.866445
H     -3.439478   -1.253208    1.546758
H     -2.755380    0.214219    2.354371
H     -4.287905    0.328396    1.418649
H     -0.863069   -0.993636    0.930973
H     -0.832866   -0.550418   -1.976072
H     -0.186708    0.953192   -1.240163
H      1.123668   -1.746327   -1.451445
H      2.281079    1.773441   -0.003389
H      2.472818    0.893332    1.566969
H      0.848377    1.176786    0.920916
H      3.261067   -2.153397   -0.484184
H      5.321267   -1.247474    0.261401
H      4.534026    0.393114    0.623046
H     -3.108643    0.450354   -1.821363
H     -2.438881    1.922132   -1.002638
H     -4.093734    1.343779   -0.615320
