18

C      0.344871   -1.669553    0.398287
C      1.723545   -1.451790    0.487430
C      2.230273   -0.149325    0.572575
C      1.352139    0.944610    0.568607
C     -0.028578    0.736599    0.479753
C     -0.535948   -0.578977    0.394011
C     -1.920216   -0.755294    0.306308
C     -2.753631    0.362838    0.305975
C     -2.180405    1.636187    0.393713
O     -2.916125    2.657534    0.394874
O     -0.859589    1.776197    0.476181
O      3.606592    0.046960    0.660667
H     -0.030665   -2.683719    0.333103
H      2.400418   -2.296711    0.490410
H      1.741370    1.953065    0.634359
H     -2.352300   -1.746508    0.238805
H     -3.827785    0.241747    0.238607
H      4.006034    0.976139    0.723614
