49

C     -6.596643    0.119723   -3.516698
C     -6.452306    0.856440   -2.185652
C     -5.671993    0.015306   -1.168534
C     -5.550275    0.747897    0.175177
C     -4.759646   -0.076229    1.149259
C     -3.428660    0.012941    1.216450
C     -2.656450   -0.845396    2.130211
C     -1.336573   -0.696140    2.262064
C     -0.559270   -1.589468    3.145563
C      0.760611   -1.479426    3.353556
C      1.640133   -0.422668    2.740997
C      1.981684   -0.750588    1.281804
C      2.847561    0.354385    0.664899
C      3.161573    0.054994   -0.804974
C      4.029564    1.133646   -1.398459
O      3.612992    2.281611   -1.456077
C      5.412202    0.822023   -1.900898
C      6.396207    0.705716   -0.734585
C      7.775097    0.410010   -1.240354
O      8.569894    1.357711   -1.491023
O      8.175981   -0.903523   -1.474418
H     -7.168781   -0.823922   -3.375922
H     -5.595152   -0.118028   -3.941449
H     -7.144695    0.761383   -4.239092
H     -7.467141    1.081079   -1.788526
H     -5.920165    1.817979   -2.362095
H     -4.653725   -0.194623   -1.570484
H     -6.197805   -0.955346   -1.007663
H     -6.566646    0.917895    0.598402
H     -5.068553    1.743271    0.031644
H     -5.292247   -0.782716    1.779217
H     -2.905332    0.720057    0.580239
H     -3.171613   -1.615368    2.693991
H     -0.839737    0.090164    1.709071
H     -1.084391   -2.382939    3.665153
H      1.224882   -2.175690    4.042010
H      1.155897    0.574042    2.824569
H      2.585522   -0.377745    3.323180
H      2.532199   -1.716051    1.242868
H      1.050856   -0.860376    0.685573
H      2.308584    1.325392    0.736426
H      3.799683    0.437640    1.236045
H      2.217046   -0.009072   -1.389128
H      3.678118   -0.928252   -0.876081
H      5.387547   -0.131984   -2.471399
H      5.746636    1.629265   -2.591471
H      6.410407    1.656116   -0.158057
H      6.077835   -0.109087   -0.047490
H      7.549090   -1.682044   -1.300560
