32

C     -4.119205    0.105275   -1.207717
C     -2.740966    0.314288   -1.294106
C     -1.929017    0.191932   -0.154058
C     -2.518196   -0.159582    1.081324
C     -3.900041   -0.373633    1.154239
C     -4.702299   -0.239773    0.013725
O     -6.077843   -0.448386    0.084295
O     -1.763936   -0.287471    2.249580
C     -0.469382    0.364562   -0.285122
C      0.104059    1.582273   -0.705247
C      1.493914    1.659698   -0.845459
O      2.012510    2.742918   -1.230724
C      2.291305    0.535661   -0.547339
C      3.702562    0.536510   -0.657433
C      4.425923   -0.621330   -0.334799
C      3.765210   -1.777727    0.095586
C      2.373689   -1.783200    0.204886
C      1.634600   -0.640069   -0.112929
O      0.311261   -0.674329   -0.004975
O      4.483427   -2.927445    0.416815
O      4.388811    1.674631   -1.082938
O     -0.670021    2.717108   -0.963772
H     -4.734192    0.204976   -2.093104
H     -2.303569    0.564053   -2.253295
H     -4.350596   -0.639942    2.102263
H     -6.531387   -0.699983    0.954864
H     -0.770045   -0.099572    2.285596
H      5.505538   -0.621764   -0.418460
H      1.864486   -2.679614    0.537095
H      5.494036   -2.957391    0.348408
H      5.398718    1.688328   -1.165873
H     -1.669352    2.748996   -0.808130
