40

C      3.217355   -1.382270    0.803267
C      2.181790   -1.903188   -0.162805
C      2.554839   -2.840162   -1.059818
C      1.713458   -3.389757   -2.146510
O      0.701475   -2.772142   -2.568856
O      2.076599   -4.583471   -2.763096
C      0.789611   -1.388538   -0.081938
C      0.504747   -0.151716    0.347076
C     -0.933941    0.345338    0.500109
C     -1.635743    0.690512   -0.820222
C     -0.721804    1.563854   -1.730344
C     -0.052282    2.692324   -0.975531
O      0.581004    3.528651   -1.600546
C     -0.112394    2.794203    0.532712
C     -1.071974    1.743052    1.165912
O     -2.393537    2.174580    0.904980
C     -2.802146    1.548142   -0.294909
C     -0.852500    1.704149    2.688168
C     -2.158564   -0.524820   -1.614258
O     -1.703145   -0.607908    1.208478
H      2.749678   -1.144974    1.782377
H      4.014644   -2.132789    0.993594
H      3.681629   -0.463187    0.388455
H      3.566352   -3.226665   -1.012484
H      2.892768   -5.103992   -2.464185
H     -0.024268   -2.053567   -0.335946
H      1.317305    0.496757    0.639469
H      0.072586    0.934146   -2.187104
H     -1.321032    1.990819   -2.564390
H      0.916435    2.691216    0.938757
H     -0.462902    3.814268    0.804172
H     -3.122075    2.317543   -1.030626
H     -3.688681    0.916006   -0.067278
H      0.138076    1.262563    2.928790
H     -0.894662    2.731543    3.109324
H     -1.646103    1.108050    3.186014
H     -2.790663   -0.178883   -2.460061
H     -1.318966   -1.108700   -2.039582
H     -2.774958   -1.195369   -0.979324
H     -1.188012   -0.895615    2.007323
