21

C      3.128904   -0.645522    2.111467
O      2.053835   -0.792332    1.191526
C      0.830770   -0.128175    1.344802
O      0.654989    0.638406    2.332055
C     -0.256282   -0.315803    0.346779
C     -0.019403   -1.080267   -0.744305
C     -0.947443   -1.320762   -1.870315
O     -0.709559   -2.273663   -2.659236
O     -2.041085   -0.497003   -2.115054
C     -1.584323    0.372374    0.594763
C     -1.634788    1.711173   -0.076890
O     -2.664429    2.056689   -0.715729
O     -0.567639    2.596311    0.047320
H      3.451509    0.416406    2.152790
H      2.813392   -0.981978    3.121769
H      3.983411   -1.268070    1.775730
H      0.934299   -1.587475   -0.828195
H     -2.655868   -0.666884   -2.902010
H     -2.430192   -0.270258    0.272263
H     -1.742781    0.526424    1.682824
H     -0.597317    3.510408   -0.388117
