47

C      3.927932    2.151861   -2.623317
C      2.758424    1.881597   -1.908749
C      2.564283    0.625094   -1.325806
C      3.549204   -0.375029   -1.458046
C      4.725475   -0.093970   -2.179941
C      4.912481    1.168620   -2.760955
O      6.072701    1.455454   -3.476813
C      3.318114   -1.625908   -0.861636
O      4.183701   -2.538847   -0.966748
C      2.115662   -1.847356   -0.151916
C      1.183072   -0.780900   -0.065294
O      1.449280    0.384700   -0.649796
C     -0.033751   -0.945215    0.635651
C     -0.326756   -2.197216    1.216931
C      0.595105   -3.244381    1.133623
C      1.810177   -3.083077    0.461631
O      2.702350   -4.155045    0.404527
O     -1.539282   -2.403964    1.876320
C     -1.042160    0.194428    0.705253
C     -2.176248   -0.032811   -0.325055
C     -3.230983    1.085678   -0.210946
C     -3.671774    1.242286    1.254012
C     -2.425393    1.397500    2.156855
O     -1.568155    0.275810    2.020559
C     -2.810825    1.539066    3.637182
O     -3.418115    0.366721    4.113581
O     -4.492443    2.375596    1.382421
O     -4.348494    0.773340   -1.002220
O     -1.664801   -0.102487   -1.633980
H      4.069909    3.127230   -3.071132
H      2.001796    2.649671   -1.807747
H      5.496216   -0.846397   -2.294998
H      6.805969    0.766244   -3.595918
H      0.361594   -4.197247    1.592214
H      2.494646   -5.046799    0.838925
H     -1.771908   -3.294873    2.299351
H     -0.524919    1.152610    0.467852
H     -2.675223   -1.001566   -0.101803
H     -2.786208    2.053313   -0.547003
H     -4.228706    0.325781    1.563281
H     -1.885456    2.333557    1.878839
H     -3.469367    2.425383    3.790537
H     -1.887641    1.717372    4.228749
H     -4.397155    0.480335    3.996235
H     -5.402055    2.107730    1.088466
H     -4.108650    0.996247   -1.939447
H     -1.211622    0.759867   -1.826771
