34

C     -5.870489    0.608040   -0.625595
O     -5.023945   -0.508512   -0.374630
C     -3.623414   -0.489585   -0.221071
C     -2.854812    0.705049   -0.164728
C     -1.431086    0.624971   -0.097179
C     -0.823475   -0.646185    0.045825
C     -1.598796   -1.801682    0.055731
C     -2.979588   -1.733448   -0.099922
O     -3.704116   -2.926110   -0.126300
O      0.495166   -0.764892    0.161954
C      1.330007    0.268255    0.124185
C      0.815771    1.558852   -0.059108
C     -0.561271    1.738687   -0.195320
O     -0.987017    2.897708   -0.439963
C      2.785056    0.016298    0.279732
C      3.218041   -1.118332    0.989886
C      4.581990   -1.383299    1.144140
C      5.533201   -0.526550    0.584455
C      5.114617    0.598606   -0.136164
C      3.751380    0.867980   -0.292040
O      6.888847   -0.803108    0.746539
O     -3.524549    1.930486   -0.131404
H     -5.531445    1.153842   -1.531308
H     -5.896321    1.277971    0.259004
H     -6.901445    0.241270   -0.806910
H     -1.119859   -2.767956    0.159263
H     -4.710806   -2.949481   -0.234685
H      1.467099    2.422840   -0.089784
H      2.500787   -1.795667    1.437006
H      4.899891   -2.256442    1.699749
H      5.844831    1.261668   -0.582544
H      3.462198    1.727456   -0.881214
H      7.602743   -0.201797    0.351982
H     -3.149191    2.773067    0.278888
