38

C     -2.941024   -1.878846   -3.181345
O     -3.649772   -1.334229   -2.072777
C     -3.049362   -0.664786   -0.994311
C     -1.658715   -0.468615   -0.916558
C     -1.088391    0.213033    0.169770
C     -1.925892    0.679552    1.198335
C     -3.319245    0.490309    1.134096
C     -3.873649   -0.181484    0.030359
O     -5.251957   -0.381871   -0.063242
O     -4.178215    0.950760    2.145510
C     -3.754922    1.647391    3.313180
C      0.384281    0.395588    0.223769
C      0.970491    1.491157    0.878679
C      2.360181    1.616169    0.898299
O      2.877096    2.603532    1.487668
C      3.155024    0.644382    0.258127
C      4.568902    0.694920    0.231608
C      5.287808   -0.309848   -0.432913
C      4.622297   -1.360086   -1.069730
C      3.224635   -1.415250   -1.046738
C      2.489926   -0.424410   -0.389163
O      1.162851   -0.499640   -0.379835
O      5.360221   -2.344717   -1.723046
O      5.261750    1.731611    0.858025
H     -2.400230   -1.073525   -3.721915
H     -3.664483   -2.349723   -3.877906
H     -2.226083   -2.654386   -2.833984
H     -1.015943   -0.833390   -1.706572
H     -1.492328    1.165429    2.059968
H     -5.896593   -0.055503    0.646558
H     -3.074154    1.007891    3.913812
H     -4.643517    1.895172    3.929054
H     -3.244110    2.592081    3.030478
H      0.363077    2.255682    1.346261
H      6.369920   -0.274867   -0.455463
H      2.707370   -2.229134   -1.539836
H      4.908805   -3.119794   -2.194641
H      6.273949    1.779445    0.846420
