46

C     -1.615344   -1.850267    0.655875
C     -2.567353   -0.781269    0.051630
C     -2.802345   -1.129025   -1.437245
C     -3.846697   -0.890630    0.885267
C     -4.747889   -1.874254    0.752649
C     -2.014145    0.679920    0.118856
C     -2.894861    1.804575    0.076076
C     -2.407752    3.091122    0.281466
C     -1.050382    3.352449    0.408308
C     -0.124366    2.277867    0.376566
C     -0.612244    0.958261    0.166147
O      0.255824   -0.030706    0.005258
C      1.572118    0.097306    0.083334
C      2.142468    1.348484    0.359651
C      1.273171    2.442540    0.554524
O      1.744540    3.548768    0.921927
O      3.548060    1.448547    0.403152
C      4.309426    2.636274    0.594404
C      2.394259   -1.114870   -0.129414
C      2.064194   -1.998505   -1.171057
C      2.808009   -3.165403   -1.370820
C      3.877986   -3.467418   -0.524923
C      4.200822   -2.606961    0.527312
C      3.459661   -1.438802    0.731128
O     -0.685895    4.699750    0.498213
O     -4.263701    1.711898   -0.196770
H     -2.149204   -2.806826    0.847284
H     -1.194607   -1.501936    1.624035
H     -0.795242   -2.123148   -0.040136
H     -3.608714   -0.515379   -1.884474
H     -3.065859   -2.199368   -1.569937
H     -1.873829   -0.946400   -2.020790
H     -4.013057   -0.169391    1.681486
H     -5.616393   -1.900105    1.402694
H     -4.632448   -2.663312    0.019075
H     -3.102221    3.923124    0.270339
H      4.124724    3.052391    1.606866
H      4.064162    3.381637   -0.191293
H      5.387348    2.387384    0.514592
H      1.236315   -1.779656   -1.834755
H      2.553168   -3.836803   -2.180603
H      4.451535   -4.372155   -0.679641
H      5.020144   -2.849903    1.191544
H      3.703857   -0.804390    1.573570
H      0.213155    5.070594    0.228620
H     -4.720396    0.903990   -0.591438
