50

C      4.758401    0.879425   -1.007291
C      5.903188    1.609905   -1.341134
C      7.129654    0.957828   -1.518233
C      7.204730   -0.428795   -1.365550
C      6.062609   -1.163135   -1.032942
C      4.829050   -0.518661   -0.836479
C      3.643916   -1.344440   -0.495121
C      2.545391   -0.858783    0.104391
C      1.360856   -1.687461    0.440076
C      1.449089   -3.075414    0.660137
C      0.306551   -3.813926    0.992231
C     -0.928091   -3.171850    1.109790
C     -1.038350   -1.793078    0.905960
C      0.115609   -1.052761    0.583548
O     -2.308047   -1.207409    1.045755
C     -2.663459    0.129515    0.684355
C     -2.739879    0.254983   -0.866046
C     -4.082353    0.867169   -1.320397
C     -4.452887    2.083959   -0.452964
C     -4.265462    1.774413    1.066569
O     -3.916342    0.416347    1.280584
C     -5.544890    2.070485    1.857395
O     -5.850508    3.436087    1.785196
O     -3.646818    3.174502   -0.822490
O     -5.105719   -0.092933   -1.224962
O     -1.689035    1.068092   -1.329149
O      0.388523   -5.187353    1.212484
O      8.275749    1.676773   -1.849351
H      3.823439    1.413405   -0.911633
H      5.833786    2.682609   -1.469367
H      8.149424   -0.938931   -1.505722
H      6.144515   -2.237429   -0.919611
H      3.697569   -2.396826   -0.739853
H      2.487653    0.192955    0.347550
H      2.399039   -3.588727    0.606400
H     -1.808677   -3.748428    1.364973
H      0.060119    0.016286    0.442497
H     -1.900023    0.823743    1.105329
H     -2.667211   -0.761367   -1.326469
H     -3.997158    1.201469   -2.382093
H     -5.516268    2.335314   -0.683377
H     -3.473052    2.433152    1.495146
H     -6.389202    1.469506    1.449919
H     -5.388681    1.781540    2.921734
H     -6.655491    3.566801    2.351351
H     -4.072335    3.986532   -0.440568
H     -4.998636   -0.706430   -1.998080
H     -0.993965    0.471294   -1.712479
H      1.271007   -5.682486    1.150823
H      8.252673    2.682533   -1.971210
