50

C      6.617049   -2.641426   -1.121941
C      5.483125   -1.972423   -1.898897
C      4.880441   -0.772799   -1.151247
C      5.822717    0.442735   -1.132626
C      5.171947    1.684095   -0.504757
C      5.043867    1.556512    0.992018
C      3.943829    1.165451    1.650907
C      2.663345    0.798910    1.011007
C      1.615455    0.429192    1.751657
C      0.339652    0.046786    1.124041
C     -0.712040   -0.309509    1.866290
C     -2.013382   -0.724514    1.242335
C     -2.736984    0.475441    0.611753
C     -4.067281    0.078067   -0.049026
C     -5.201052   -0.102166    0.976256
C     -6.497825   -0.625359    0.338610
C     -7.177145    0.412922   -0.564231
C     -8.494698   -0.105528   -1.055853
O     -9.561154    0.242062   -0.482305
O     -8.549373   -0.999370   -2.122384
H      7.493279   -1.965458   -1.043409
H      6.937676   -3.561229   -1.656232
H      6.275720   -2.925086   -0.102981
H      5.851247   -1.656196   -2.899281
H      4.680244   -2.725582   -2.059375
H      3.939308   -0.486940   -1.669380
H      4.621332   -1.074067   -0.113396
H      6.753872    0.200768   -0.576924
H      6.106847    0.693116   -2.178875
H      4.209092    1.926857   -0.998029
H      5.838450    2.551916   -0.704927
H      5.927516    1.779582    1.579091
H      4.005291    1.116747    2.732727
H      2.560424    0.817562   -0.065524
H      1.701327    0.401990    2.833415
H      0.255658    0.051921    0.042562
H     -0.628558   -0.335874    2.946892
H     -2.647295   -1.172323    2.035076
H     -1.822823   -1.505888    0.474463
H     -2.912997    1.260749    1.379114
H     -2.083538    0.915268   -0.172669
H     -3.931821   -0.852823   -0.642486
H     -4.347357    0.888969   -0.754406
H     -4.890032   -0.836685    1.748095
H     -5.399277    0.862726    1.493131
H     -7.198069   -0.895173    1.160688
H     -6.285187   -1.551422   -0.239789
H     -6.538036    0.638972   -1.443498
H     -7.338317    1.358020    0.000288
H     -7.704467   -1.314579   -2.585970
