45

C     -2.459198   -1.219195   -1.070266
C     -2.375126    0.236428   -0.505121
C     -1.681128    1.159048   -1.529203
C     -0.179354    0.805992   -1.685737
C      0.586372    0.735526   -0.326305
C     -0.165350   -0.155393    0.706064
C     -1.615008    0.351685    0.822669
C     -2.547272   -0.271093    1.853766
C     -3.955888    0.086816    1.345601
C     -3.776320    0.700882   -0.061631
O     -4.784562    0.278956   -0.944070
C      0.579096   -0.086508    2.042833
C      1.957455   -0.736219    1.903790
C      2.705490   -0.338257    0.643221
C      2.047899    0.295498   -0.449092
C      2.812402    0.646216   -1.578597
C      4.160730    0.312803   -1.663603
C      4.799362   -0.356543   -0.622425
C      4.070838   -0.689962    0.541612
O      4.664469   -1.368139    1.611951
O      6.152426   -0.663422   -0.784815
H     -3.045594   -1.228318   -2.013576
H     -1.470699   -1.649408   -1.315992
H     -2.957319   -1.910391   -0.359665
H     -1.762754    2.219724   -1.202800
H     -2.185368    1.080383   -2.516877
H     -0.062504   -0.150503   -2.236939
H      0.256213    1.605012   -2.320111
H      0.612656    1.776310    0.069680
H     -0.159997   -1.215875    0.376816
H     -1.547953    1.433106    1.102050
H     -2.410700   -1.373860    1.892105
H     -2.368846    0.154511    2.865340
H     -4.584027   -0.830079    1.302879
H     -4.442611    0.821349    2.023547
H     -3.793281    1.814133    0.021639
H     -5.619513    0.729966   -0.652900
H      0.691542    0.970842    2.370972
H      0.014669   -0.630531    2.830294
H      1.833490   -1.841309    1.899545
H      2.557197   -0.465718    2.799996
H      2.385009    1.187407   -2.407995
H      4.719924    0.584713   -2.550363
H      5.626970   -1.671294    1.632088
H      6.716165   -1.135289   -0.093110
