30

C     -5.078420   -0.351060    0.014697
C     -3.622412   -0.278377    0.466070
C     -2.771371    0.512120   -0.538917
C     -1.327109    0.723742   -0.056603
C     -0.485062   -0.561785   -0.132801
C      0.959101   -0.351271    0.350455
C      1.814413    0.428839   -0.660065
C      3.239891    0.531514   -0.197247
C      4.057773   -0.527147   -0.223798
C      5.472100   -0.477812    0.197159
O      6.223804   -1.443118   -0.098212
O      6.003766    0.584357    0.928883
H     -5.512070    0.669100   -0.058006
H     -5.667945   -0.934740    0.752829
H     -5.150961   -0.852185   -0.974124
H     -3.235844   -1.314292    0.564711
H     -3.581054    0.211439    1.463228
H     -2.768759   -0.004893   -1.523710
H     -3.232809    1.513419   -0.686596
H     -0.869773    1.498730   -0.706504
H     -1.331076    1.116103    0.983940
H     -0.943664   -1.336430    0.516767
H     -0.480734   -0.954162   -1.173345
H      1.413028   -1.353905    0.509630
H      0.957571    0.174519    1.330720
H      1.414476    1.457995   -0.771947
H      1.781794   -0.063102   -1.656941
H      3.597090    1.504619    0.108982
H      3.682317   -1.470602   -0.603589
H      5.441940    1.348386    1.279335
