36

C      4.693935   -1.857801   -0.692783
O      4.730539   -0.457604   -0.435916
C      3.606200    0.328235   -0.134764
C      2.310541   -0.220787   -0.071210
C      1.204351    0.586201    0.243056
C      1.397079    1.957840    0.456782
C      2.676384    2.516052    0.396722
C      3.784947    1.703359    0.105250
O      5.057566    2.274612    0.052869
O      2.826843    3.882978    0.629828
C     -0.166258    0.028036    0.293458
C     -0.451155   -1.198562    0.924005
C     -1.771556   -1.674400    0.916360
O     -2.036743   -2.776977    1.468314
C     -2.784066   -0.910950    0.299797
C     -4.139541   -1.317220    0.251853
C     -5.090071   -0.496265   -0.372986
C     -4.711250    0.721650   -0.949068
C     -3.376051    1.125802   -0.904633
C     -2.413314    0.321268   -0.288138
O     -1.149375    0.728174   -0.265030
O     -5.655156    1.537638   -1.568816
O     -4.547668   -2.525514    0.818277
O      0.561671   -1.911792    1.570503
H      4.068516   -2.065953   -1.586468
H      4.292434   -2.397980    0.190597
H      5.724683   -2.216874   -0.890074
H      2.155422   -1.267969   -0.290044
H      0.552177    2.597143    0.684224
H      5.887395    1.731849   -0.153633
H      3.730542    4.339402    0.598558
H     -6.127004   -0.806048   -0.410095
H     -3.085021    2.068239   -1.352229
H     -6.632382    1.274108   -1.618714
H     -5.514607   -2.827594    0.790742
H      0.389994   -2.792297    2.040852
