29

C      2.949176   -0.611301    0.272463
C      4.231285   -0.059369    0.355024
C      4.422401    1.313109    0.154339
C      3.324733    2.131317   -0.124536
C      2.041038    1.583838   -0.206990
C      1.837944    0.204250   -0.020678
C      0.462923   -0.349649   -0.104953
C      0.223196   -1.686581   -0.471363
C     -1.090397   -2.153874   -0.535686
O     -1.309258   -3.351570   -0.864734
C     -2.147738   -1.280978   -0.237419
C     -1.833994    0.050647    0.113517
O     -0.567503    0.452216    0.162134
C     -2.859128    0.954656    0.412560
C     -4.196038    0.545638    0.366688
C     -4.510407   -0.775529    0.019237
C     -3.493562   -1.686623   -0.282270
O     -5.204072    1.458741    0.667806
O      5.695692    1.872609    0.233201
H      2.832239   -1.669302    0.463659
H      5.074789   -0.698864    0.582323
H      3.466236    3.193708   -0.277640
H      1.207447    2.238918   -0.428589
H      1.035391   -2.353517   -0.730045
H     -2.617310    1.975615    0.681248
H     -5.543447   -1.097196   -0.017943
H     -3.760873   -2.701756   -0.549088
H     -6.182146    1.194746    0.643928
H      6.511381    1.306101    0.434737
