26

C     -3.345373   -0.855900    0.265902
C     -2.772429    0.541739    0.499231
C     -1.757130    0.955433   -0.577181
C     -0.441616    0.168882   -0.480929
C      0.592234    0.703478   -1.483316
C      1.889318   -0.115555   -1.470990
C      2.653535    0.079562   -0.191492
C      2.688449   -0.864044    0.755596
C      3.401718   -0.677142    2.027796
O      4.021738    0.389703    2.282934
H     -2.562658   -1.630068    0.404474
H     -4.155372   -1.049403    1.000347
H     -3.770049   -0.936577   -0.757274
H     -3.613136    1.268873    0.486077
H     -2.303715    0.589026    1.506203
H     -1.538951    2.037831   -0.444000
H     -2.204685    0.823553   -1.586815
H     -0.037703    0.257738    0.550883
H     -0.631471   -0.904053   -0.697387
H      0.161294    0.655891   -2.507435
H      0.821420    1.769138   -1.260304
H      1.663108   -1.190213   -1.649820
H      2.532372    0.225881   -2.310094
H      3.142646    1.033281   -0.031989
H      2.172967   -1.803922    0.599467
H      3.393486   -1.473133    2.760251
