27

C      4.717460    0.824104    0.328145
C      3.218355    1.103567    0.273841
C      2.460123   -0.064170   -0.367608
C      0.954553    0.220389   -0.420613
C      0.196124   -0.949041   -1.060482
C     -1.274008   -0.658142   -1.153356
C     -2.052817   -0.636763   -0.068491
C     -3.495253   -0.363865   -0.175634
C     -4.271939   -0.342509    0.909042
C     -5.709598   -0.070418    0.806813
O     -6.421762   -0.055456    1.844372
H      4.918795   -0.085346    0.933498
H      5.239321    1.685046    0.796558
H      5.120454    0.679489   -0.696924
H      3.046723    2.030910   -0.315171
H      2.846070    1.269472    1.308370
H      2.638894   -0.988667    0.224869
H      2.840778   -0.226670   -1.400250
H      0.774515    1.143297   -1.015477
H      0.578032    0.387527    0.612520
H      0.587467   -1.120282   -2.086874
H      0.355100   -1.879551   -0.472332
H     -1.705029   -0.491781   -2.134084
H     -1.618066   -0.825233    0.907053
H     -3.928769   -0.177251   -1.152453
H     -3.845802   -0.527637    1.888619
H     -6.169721    0.118979   -0.155011
