32

C      5.387514    0.552736    0.412717
C      4.013988    0.222074    0.989313
C      2.968244    0.072932   -0.121576
C      1.589755   -0.259187    0.461674
C      0.543153   -0.408256   -0.648925
C     -0.835337   -0.740185   -0.065664
C     -1.883774   -0.884785   -1.178643
C     -3.265481   -1.267176   -0.626952
C     -3.861834   -0.182479    0.226070
C     -4.285877    0.970263   -0.303024
C     -4.878819    2.040790    0.512161
O     -5.010829    1.920336    1.759454
H      5.349808    1.510242   -0.149288
H      6.122640    0.654611    1.238661
H      5.726458   -0.258469   -0.266364
H      3.710282    1.035817    1.683537
H      4.085311   -0.725351    1.566945
H      2.905146    1.022871   -0.697159
H      3.280516   -0.740015   -0.813863
H      1.277983    0.553738    1.154195
H      1.653059   -1.209079    1.037266
H      0.855102   -1.221010   -1.341506
H      0.479555    0.541732   -1.224338
H     -0.773047   -1.691664    0.507134
H     -1.141107    0.071694    0.629962
H     -1.558290   -1.682968   -1.881139
H     -1.956191    0.062754   -1.756061
H     -3.952155   -1.485714   -1.473556
H     -3.176657   -2.197410   -0.024912
H     -3.963663   -0.366831    1.288981
H     -4.197631    1.136377   -1.369819
H     -5.207820    2.951611    0.030167
