26

C     -1.792865   -0.120686   -0.546008
C     -0.494000    0.128305    0.227382
C      0.719817    0.254237   -0.728652
C      2.027018    0.505287    0.034155
O      2.457636   -0.683098    0.688419
N      3.598982   -0.712293    1.462586
O      3.933616   -1.774081    2.023967
O      4.369293    0.415920    1.629730
O      0.522500    1.349541   -1.628036
N      0.023666    1.198299   -2.909123
O     -0.241177    0.070123   -3.374284
O     -0.161938    2.311181   -3.693333
O     -0.301786   -0.959948    1.134666
N      0.116172   -0.785732    2.440479
O      0.276328   -1.784983    3.168678
O      0.358968    0.468124    2.953412
O     -2.871517   -0.287740    0.369245
N     -4.162225   -0.530798   -0.056917
O     -4.433598   -0.613724   -1.273064
O     -5.162830   -0.683986    0.872320
H     -1.693496   -1.037870   -1.166663
H     -2.016570    0.745183   -1.204794
H     -0.621391    1.082378    0.784912
H      0.844133   -0.692413   -1.300243
H      2.814853    0.817593   -0.685532
H      1.890411    1.321180    0.776697
