27

C      4.887977    0.940570    0.359603
C      4.141400    0.166022    1.248311
C      2.773303   -0.031912    1.034107
C      2.132018    0.549332   -0.083198
C      2.902213    1.327470   -0.968475
C      4.268856    1.520702   -0.747719
C      0.680584    0.384008   -0.377849
C     -0.178163   -0.327531    0.373793
C     -1.629655   -0.492946    0.079252
C     -2.399410   -1.270868    0.964236
C     -3.765964   -1.464732    0.744454
C     -4.389274   -0.885827   -0.362482
C     -3.638731   -0.109404   -1.252408
C     -2.270838    0.088054   -1.037529
O     -5.752075   -1.087426   -0.569190
H      5.946322    1.091104    0.529205
H      4.623929   -0.283195    2.106924
H      2.242628   -0.638667    1.750593
H      2.445339    1.788796   -1.835727
H      4.848137    2.121495   -1.436993
H      0.323164    0.882956   -1.264650
H      0.179401   -0.826439    1.260566
H     -1.942082   -1.732042    1.831347
H     -4.341218   -2.066526    1.436635
H     -4.114848    0.342934   -2.113237
H     -1.739912    0.694817   -1.753829
H     -6.233099   -0.680746   -1.362998
