44

C     -2.933615    2.303312    0.504315
C     -2.858816    0.891963    1.121054
C     -4.034695   -0.059777    0.733815
C     -3.548737   -1.208907   -0.172458
C     -2.539734   -0.667918   -1.195462
C     -1.334618    0.012997   -0.478424
O     -1.593820    0.285006    0.897907
O     -0.199082   -0.830514   -0.561080
C      0.998762   -0.138551   -0.238455
C      1.839823    0.043236   -1.522055
C      3.278863    0.506296   -1.200663
C      3.875702   -0.388748   -0.085859
O      3.044279   -0.372983    1.062966
C      1.793374   -0.979957    0.778626
O      1.053248   -1.068908    1.965536
C      5.285150    0.077467    0.305754
O      5.839734   -0.790278    1.257390
O      3.319725    1.871579   -0.854834
O      1.215567    0.915677   -2.431482
O     -2.122086   -1.672956   -2.089344
O     -4.629211   -1.808940   -0.840198
O     -5.077978    0.640156    0.100232
H     -3.793455    2.861568    0.931719
H     -2.005856    2.866550    0.740142
H     -3.057279    2.259729   -0.597521
H     -2.933628    1.052277    2.219063
H     -4.429788   -0.535833    1.663314
H     -3.032395   -1.972446    0.457606
H     -3.062057    0.105039   -1.802292
H     -1.125917    0.966055   -1.019014
H      0.823009    0.861002    0.229684
H      1.915105   -0.950249   -2.018716
H      3.891376    0.375372   -2.119721
H      3.978351   -1.428286   -0.478835
H      1.935145   -2.012711    0.375167
H      1.541035   -1.702714    2.553611
H      5.939850    0.127354   -0.594557
H      5.237480    1.095231    0.748040
H      6.129017   -1.603548    0.766773
H      2.855991    1.984875    0.014418
H      1.061543    1.779988   -1.968613
H     -1.821321   -2.453368   -1.553911
H     -5.126965   -2.334287   -0.160411
H     -5.591078    1.099149    0.815754
