40

C      3.874192   -1.070675   -0.554244
N      2.419559   -0.891062   -0.682075
C      2.087553   -0.309619   -1.999621
C      0.568889   -0.105095   -2.171164
C     -0.123538    0.467929   -0.895223
C      0.937068    1.029608    0.078935
C      1.848987   -0.173303    0.497188
C      1.060316   -1.225689    1.327281
C     -0.328616   -1.481050    0.786424
C     -0.860398   -0.621785   -0.179299
C     -2.206101   -0.463178   -0.313741
C     -3.107157   -1.332271    0.299390
C     -2.589961   -2.332112    1.147779
C     -1.207264   -2.377693    1.425485
O     -4.477407   -1.184204    0.102022
O     -2.503060    0.702123   -0.987879
C     -1.307867    1.450677   -1.248542
C     -1.271935    2.755855   -0.404993
C     -0.790480    2.520144    1.013291
C      0.271440    1.733957    1.241747
O     -2.516273    3.409198   -0.419734
H      4.397812   -0.089208   -0.571380
H      4.258742   -1.703762   -1.382662
H      4.111623   -1.593667    0.397199
H      2.613951    0.661818   -2.138904
H      2.436763   -0.989953   -2.807507
H      0.104418   -1.071234   -2.471395
H      0.437232    0.582495   -3.033528
H      1.551523    1.798145   -0.440000
H      2.656176    0.238454    1.147428
H      1.624334   -2.182804    1.368774
H      0.963215   -0.859936    2.372107
H     -3.259756   -3.016020    1.652941
H     -0.835620   -3.061671    2.177983
H     -5.144082   -1.800578    0.551683
H     -1.310405    1.739219   -2.321467
H     -0.533455    3.435686   -0.883055
H     -1.306859    2.981372    1.849887
H      0.605321    1.562865    2.260411
H     -3.148881    2.867026    0.120706
