40

C      2.786763    0.372051    1.717106
C      1.405771    0.253775    1.564937
C      0.851513   -0.104533    0.328510
C      1.702273   -0.347095   -0.778130
C      3.093232   -0.223628   -0.609347
C      3.644419    0.135457    0.633234
C      5.109734    0.258782    0.802707
O      5.885610    0.049369   -0.168932
O      5.646385    0.608539    2.039264
C      1.168945   -0.742524   -2.106072
O      0.158236   -1.489416   -2.187492
O      1.775876   -0.307643   -3.282748
C     -0.628024   -0.170158    0.213659
C     -1.329224   -1.296345    0.686219
C     -0.708963   -2.414851    1.268778
C     -1.476647   -3.498670    1.709045
C     -2.873103   -3.494806    1.575588
O     -3.543041   -4.481927    1.980336
C     -3.531521   -2.405315    0.994838
C     -2.803085   -1.305874    0.541884
O     -3.422093   -0.278190   -0.016608
C     -2.775073    0.791392   -0.465364
C     -3.514076    1.830647   -1.041149
C     -2.876302    2.976664   -1.521260
C     -1.483157    3.089682   -1.424327
C     -0.731806    2.059967   -0.851690
C     -1.361431    0.893219   -0.368106
F     -0.851447    4.198955   -1.883618
O     -3.640360    3.994230   -2.090278
F     -0.854786   -4.566272    2.270531
H      3.181795    0.651000    2.685842
H      0.762099    0.448986    2.414339
H      3.752419   -0.431644   -1.442965
H      6.647663    0.695874    2.166068
H      2.545123    0.350727   -3.277411
H      0.366028   -2.462234    1.385329
H     -4.610290   -2.414728    0.893152
H     -4.591568    1.747556   -1.114992
H      0.341120    2.186835   -0.790273
H     -3.219004    4.842149   -2.450603
