24

C      0.173763   -1.297350    0.437231
C      1.482700   -0.638660   -0.039828
C      1.431528    0.880413    0.182447
C      0.223166    1.502493   -0.531770
C     -1.091663    0.845206   -0.060740
C     -1.049707   -0.687539   -0.275259
N     -2.274653   -1.304233    0.240908
O     -2.158683    1.398007   -0.790643
O      0.196249    2.878993   -0.254406
N      2.639493   -1.203471    0.658085
H      0.218124   -2.387400    0.221799
H      0.064321   -1.169591    1.537447
H      1.604808   -0.831846   -1.129863
H      1.375739    1.101700    1.271899
H      2.364060    1.339659   -0.212718
H      0.345574    1.341048   -1.629901
H     -1.216470    1.057499    1.029570
H     -0.968401   -0.899894   -1.366833
H     -2.210381   -2.338963    0.100326
H     -3.078362   -0.993902   -0.351709
H     -2.940354    1.443514   -0.180234
H     -0.329402    3.310239   -0.977902
H      2.702243   -2.222565    0.430463
H      2.496311   -1.123357    1.691630
