21

C     -0.257189    1.835470   -0.056128
C     -0.196740    0.301167   -0.239325
C     -0.402665   -0.002794   -1.741575
C     -1.357009   -0.353685    0.558507
O     -1.229473   -0.107606    1.932944
C      1.208298   -0.217009    0.218948
C      1.362942   -1.710178    0.072284
O      0.986207   -2.486125    0.990402
O      1.908940   -2.240439   -1.090094
O      1.461044    0.153882    1.551859
H     -0.136263    2.117849    1.011319
H      0.549651    2.331422   -0.638037
H     -1.233120    2.236607   -0.406008
H     -0.437829   -1.097232   -1.927132
H      0.422667    0.429142   -2.347893
H     -1.360579    0.430119   -2.103335
H     -2.330560    0.056504    0.204746
H     -1.377890   -1.451459    0.377674
H     -1.997313   -0.561655    2.367867
H      1.976374    0.263849   -0.432682
H      2.440507    0.072168    1.695661
