14

C      0.737830    0.510587   -0.327703
C      2.185680    0.360563   -0.668497
O      2.552498    0.360263   -1.873060
O      3.131606    0.176230    0.335464
O      0.200679   -0.763618   -0.068598
P     -1.420107   -0.578185    0.430398
O     -1.471630    0.136055    1.763619
O     -2.110921   -2.112791    0.602068
O     -2.302331    0.292418   -0.725682
H      0.216851    0.989799   -1.186911
H      0.661559    1.171916    0.564888
H      2.860774    0.151103    1.311339
H     -3.061266   -1.939265    0.820670
H     -2.181222    1.244926   -0.482309
