39

C      2.946935   -0.965175    1.726484
C      2.981142   -0.088590    0.499886
C      4.180886    0.281863    0.006241
C      4.411811    1.043472   -1.239240
O      3.525155    1.149893   -2.126861
O      5.662657    1.602950   -1.464301
C      1.701358    0.347727   -0.111189
C      0.611106   -0.429312   -0.115256
C     -0.706905    0.033253   -0.723504
C     -1.469987    1.075036    0.115179
C     -1.497967    0.658877    1.616450
C     -1.863937   -0.799635    1.807801
O     -2.056749   -1.217138    2.938985
C     -1.961869   -1.764256    0.643203
C     -1.815448   -1.056076   -0.738546
O     -3.032304   -0.377637   -0.988437
C     -2.891705    0.930410   -0.465863
C     -1.588585   -2.108455   -1.837218
C     -0.952855    2.521522   -0.023170
O     -0.427120    0.505780   -2.030209
H      2.018226   -0.786394    2.309375
H      3.805710   -0.751487    2.398742
H      2.983666   -2.031702    1.420798
H      5.074658   -0.014019    0.543560
H      1.650983    1.326738   -0.566978
H      0.693746   -1.434459    0.272918
H     -0.501938    0.831263    2.079389
H     -2.227367    1.291680    2.168389
H     -1.191899   -2.554793    0.770268
H     -2.950244   -2.272324    0.686589
H     -3.065017    1.656010   -1.290453
H     -3.679449    1.114154    0.296764
H     -0.603476   -2.604380   -1.704982
H     -2.384170   -2.882926   -1.795646
H     -1.622188   -1.644409   -2.845078
H     -1.653374    3.221701    0.480369
H      0.039901    2.635211    0.457815
H     -0.872010    2.825260   -1.087899
H     -1.271377    0.730369   -2.498707
