43

C      5.009043   -0.638772    0.441249
C      3.558342   -0.668090    0.932647
C      2.546365   -0.725052   -0.251754
C      1.202138   -0.118584    0.184371
C      1.414964    1.347925    0.655525
C      2.847129    1.566495    1.194950
O      3.319004    0.399487    1.846772
O      2.835400    2.630481    2.107384
O      1.193228    2.248159   -0.402285
O      0.291631   -0.187976   -0.902448
C     -1.061377   -0.158515   -0.474242
C     -1.659615   -1.584905   -0.583017
C     -3.179985   -1.536399   -0.874273
C     -3.797028   -0.271222   -0.268303
C     -3.093672    0.978901   -0.874715
O     -1.763736    0.731333   -1.324502
C     -3.124116    2.179480    0.078364
O     -5.173057   -0.241242   -0.549302
O     -3.827643   -2.673505   -0.362792
O     -1.424790   -2.282411    0.615135
O      2.386204   -2.042597   -0.718853
H      5.700361   -0.638031    1.310445
H      5.204859    0.267111   -0.169421
H      5.219950   -1.537976   -0.175919
H      3.443816   -1.604526    1.521136
H      2.932693   -0.115495   -1.099562
H      0.846969   -0.725352    1.052179
H      0.694968    1.548047    1.485903
H      3.524297    1.840095    0.350051
H      3.782391    2.800901    2.351927
H      0.232443    2.496879   -0.379949
H     -1.163042    0.197939    0.581132
H     -1.180650   -2.124620   -1.435390
H     -3.334427   -1.493697   -1.979444
H     -3.640665   -0.308857    0.836819
H     -3.670907    1.277443   -1.777589
H     -2.609381    1.947294    1.033688
H     -2.618125    3.047210   -0.395383
H     -4.173829    2.465302    0.300773
H     -5.579571    0.408526    0.081300
H     -3.562538   -3.435484   -0.941638
H     -0.522991   -2.689987    0.541754
H      1.974949   -2.575715    0.010660
