26

C     -3.207463   -0.867470   -0.247502
C     -2.277303   -1.758861   -0.784486
C     -0.958631   -1.350169   -1.037177
C     -0.577779   -0.015297   -0.755379
C     -1.524650    0.869811   -0.210524
C     -2.832528    0.448019    0.043090
O     -3.752681    1.346143    0.579304
C      0.782682    0.481809   -1.052162
O      1.265019    0.324805   -2.206244
C      1.625974    1.120082    0.014968
C      2.338157    0.045172    0.843921
N      3.171350    0.651329    1.881735
N     -0.018111   -2.312068   -1.534924
H     -4.219008   -1.201589   -0.054653
H     -2.581644   -2.777057   -0.992515
H     -1.257798    1.898984   -0.004202
H     -4.708882    1.072352    0.773297
H      0.997114    1.747274    0.681186
H      2.380449    1.784315   -0.460302
H      2.975899   -0.577549    0.177107
H      1.582313   -0.618634    1.320738
H      3.902435    1.259326    1.445952
H      2.579724    1.218796    2.531383
H      3.642408   -0.105897    2.427578
H     -0.330522   -3.276532   -1.786240
H      1.003478   -2.109887   -1.593949
