50

C     -5.776032    2.003580   -0.708108
C     -5.365829    0.579134   -0.287889
C     -6.034743   -0.429030   -1.241903
C     -3.810549    0.404605   -0.246339
C     -3.151187    1.428877    0.714415
C     -1.632128    1.239354    0.806324
C     -1.283986   -0.189968    1.245491
C     -1.892724   -1.208994    0.271817
C     -3.413315   -1.034277    0.176380
C      0.208834   -0.374629    1.357723
O      0.706655   -0.673394    2.477535
N      1.062397   -0.218514    0.211839
C      2.509868   -0.441588    0.285943
C      3.204963    0.147846   -0.956211
C      4.707420    0.092922   -0.835035
C      5.391458    1.061311   -0.081185
C      6.780940    0.992231    0.059731
C      7.495541   -0.045958   -0.544279
C      6.821498   -1.018297   -1.288229
C      5.432135   -0.952713   -1.431953
C      2.792720   -1.917341    0.405267
O      2.167438   -2.741066   -0.314190
O      3.776132   -2.381346    1.274481
H     -6.873709    2.067515   -0.867171
H     -5.263436    2.297841   -1.648901
H     -5.535373    2.735628    0.089677
H     -5.774542    0.398878    0.731476
H     -5.552331   -0.401652   -2.242456
H     -5.979408   -1.458062   -0.831658
H     -7.115383   -0.200914   -1.362596
H     -3.410971    0.585733   -1.270033
H     -3.597405    1.338075    1.729468
H     -3.324236    2.463228    0.352308
H     -1.222538    1.964464    1.543415
H     -1.179989    1.465942   -0.184031
H     -1.731703   -0.361917    2.251401
H     -1.451803   -1.092981   -0.742455
H     -1.669951   -2.239579    0.625658
H     -3.876462   -1.282723    1.156982
H     -3.774426   -1.769223   -0.572339
H      0.634211    0.039236   -0.705879
H      2.900962    0.086075    1.184338
H      2.870386   -0.390527   -1.871005
H      2.893811    1.208881   -1.077855
H      4.847989    1.865918    0.398638
H      7.303413    1.741990    0.639707
H      8.570853   -0.098825   -0.433149
H      7.375384   -1.824805   -1.751262
H      4.921560   -1.717984   -2.003232
H      4.317590   -1.742955    1.844874
