37

C      1.515530    2.539129   -1.344287
C      1.812814    1.103099   -1.049188
C      2.155357    0.545958    0.169004
N      2.253354   -0.792432    0.034339
C      1.961429   -1.018413   -1.264394
N      1.680941    0.110305   -1.942378
C      2.303803    1.257765    1.484685
C      0.947373    1.665835    2.078045
C      0.141797    0.469020    2.514830
O      0.193087    0.111135    3.722147
C     -0.574407   -0.388938    1.551048
C     -0.489241   -1.777638    1.519051
N     -1.129130   -2.262946    0.431217
C     -1.629560   -1.198225   -0.224924
C     -2.362887   -1.195903   -1.414198
C     -2.806159    0.040230   -1.913065
C     -2.526333    1.233345   -1.215484
C     -1.786388    1.204716   -0.020830
C     -1.323169   -0.031887    0.437050
C     -1.202388   -3.663147    0.026049
H      2.140778    3.204530   -0.714235
H      1.732862    2.756747   -2.410826
H      0.444236    2.746065   -1.146921
H      1.935376   -2.004990   -1.706778
H      1.401779    0.189799   -2.945350
H      2.924539    2.166587    1.335965
H      2.845618    0.604458    2.202860
H      1.133788    2.312865    2.962623
H      0.393927    2.287060    1.352782
H      0.058679   -2.389523    2.224905
H     -2.589579   -2.114763   -1.938564
H     -3.377626    0.075275   -2.831352
H     -2.893123    2.177155   -1.597171
H     -1.620311    2.117996    0.529341
H     -0.731125   -4.316052    0.791223
H     -2.264688   -3.963818   -0.092430
H     -0.670953   -3.800398   -0.939417
