31

C     -3.112811    1.633409   -0.512852
C     -2.332896    0.342838   -0.457529
C     -0.997956    0.289163    0.035327
C     -0.289558   -0.954834   -0.012511
C     -0.972608   -2.107893   -0.444330
C     -2.294718   -2.046467   -0.868133
C     -2.967933   -0.832400   -0.882948
C      1.166770   -1.141628    0.415198
C      1.281203   -1.302084    1.938078
C      2.092505   -0.099001   -0.169335
C      2.245193    0.174852   -1.511683
N      3.172352    1.140323   -1.666287
C      3.568486    1.427711   -0.408206
N      2.935700    0.688840    0.521849
C     -0.341109    1.565694    0.520072
H     -2.501766    2.433255   -0.981575
H     -3.404956    1.938462    0.513717
H     -4.037600    1.527950   -1.119487
H     -0.476528   -3.070810   -0.457585
H     -2.798022   -2.946342   -1.198021
H     -3.992837   -0.810517   -1.232959
H      1.539480   -2.101607   -0.007630
H      0.961321   -0.391817    2.481290
H      2.329884   -1.537233    2.219478
H      0.643447   -2.147236    2.274968
H      1.714493   -0.297741   -2.327612
H      4.317689    2.172202   -0.173657
H      3.078440    0.734816    1.554781
H     -1.072661    2.239891    1.009203
H      0.428188    1.381714    1.287735
H      0.118804    2.096488   -0.339357
