37

C     -6.229826   -0.534868    1.141042
C     -5.257782    0.355457    0.372387
C     -3.856441   -0.264286    0.327216
C     -2.882655    0.633234   -0.445615
C     -1.480683    0.013646   -0.492392
C     -0.504380    0.920143   -1.256951
C      0.878554    0.276453   -1.444717
C      1.675949    0.193375   -0.134491
C      3.095723   -0.327180   -0.388432
C      3.889569   -0.421391    0.918702
C      5.277040   -0.936438    0.659280
O      5.505226   -2.171357    0.763684
C      6.364016   -0.035628    0.243852
O      6.153353    1.199245    0.104874
O      7.633709   -0.550672    0.000524
H     -6.313205   -1.528334    0.650980
H     -7.234152   -0.061537    1.157087
H     -5.884049   -0.669834    2.188091
H     -5.212361    1.349742    0.868063
H     -5.639765    0.494948   -0.662499
H     -3.910243   -1.259733   -0.166590
H     -3.482806   -0.404394    1.365690
H     -2.828202    1.628431    0.048649
H     -3.258022    0.773952   -1.483343
H     -1.118984   -0.132615    0.547652
H     -1.534803   -0.978029   -0.993223
H     -0.923893    1.128633   -2.265696
H     -0.398526    1.893423   -0.729203
H      0.765141   -0.738858   -1.884347
H      1.447750    0.896059   -2.172137
H      1.163739   -0.493600    0.572347
H      1.733381    1.202980    0.328767
H      3.040094   -1.334497   -0.857854
H      3.619790    0.360180   -1.088869
H      3.944313    0.577609    1.403570
H      3.369745   -1.108595    1.621997
H      8.393684    0.054337   -0.287054
