48

C     -4.982362   -1.942053   -1.041492
C     -4.797250   -0.755825   -1.985662
C     -5.095251    0.600632   -1.323007
C     -4.062266    1.004927   -0.255436
C     -4.381264    0.429967    1.104947
C     -3.576594    0.563388    2.174252
C     -2.231292    1.242363    2.143295
C     -1.129297    0.243279    1.773635
C      0.239539    0.930938    1.714708
C      1.342655   -0.068978    1.348369
C      2.710235    0.625046    1.270624
C      3.870790   -0.363098    1.057429
C      3.804524   -1.176048   -0.251381
C      3.713944   -0.335307   -1.540886
C      4.889316    0.631711   -1.750935
C      6.192927   -0.094168   -1.879632
O      7.001045   -0.119177   -0.913128
O      6.497853   -0.766392   -3.058913
H     -4.898144   -2.887830   -1.617180
H     -4.194185   -1.945351   -0.260314
H     -5.984462   -1.907403   -0.563806
H     -3.762372   -0.763322   -2.391564
H     -5.492197   -0.884006   -2.843725
H     -6.126140    0.610912   -0.905278
H     -5.071949    1.370373   -2.125131
H     -4.065573    2.112931   -0.168031
H     -3.047459    0.694450   -0.581547
H     -5.316642   -0.104873    1.244597
H     -3.898930    0.129507    3.116527
H     -2.236204    2.100887    1.438145
H     -2.024191    1.649154    3.156755
H     -1.351743   -0.214715    0.785768
H     -1.102024   -0.567812    2.534784
H      0.466215    1.384012    2.705051
H      0.211075    1.741202    0.952879
H      1.378974   -0.874037    2.114982
H      1.099713   -0.524278    0.364426
H      2.704335    1.391830    0.467372
H      2.895850    1.159929    2.227824
H      4.829095    0.196737    1.095328
H      3.893132   -1.076179    1.910210
H      2.932404   -1.862608   -0.213085
H      4.703692   -1.826827   -0.305011
H      2.764283    0.239810   -1.548027
H      3.663672   -1.029837   -2.407988
H      4.714091    1.203327   -2.687294
H      4.938683    1.373219   -0.925788
H      7.369747   -1.272505   -3.157667
