47

C     -7.362901    1.078501   -0.028856
C     -5.856017    0.882827    0.135207
C     -5.494123   -0.495527    0.708726
C     -5.758248   -1.635369   -0.287184
C     -5.265076   -2.952929    0.250862
C     -3.978852   -3.322345    0.253815
C     -2.926818   -2.486527   -0.267253
C     -2.051229   -1.782044   -0.702703
C     -1.029614   -0.952652   -1.211854
C     -0.157238   -0.242767   -1.645105
C      0.910732    0.625490   -2.171628
C      1.834850    1.128912   -1.046124
C      2.688917   -0.002425   -0.446809
C      3.522960    0.455645    0.762869
C      4.556978    1.560110    0.464327
C      5.566210    1.228371   -0.653387
C      6.413564   -0.026418   -0.391087
C      7.257396    0.115234    0.838032
O      8.319664    0.792022    0.799972
O      6.850212   -0.473882    2.030856
O      0.346052    1.707536   -2.867493
H     -7.762524    0.408619   -0.818103
H     -7.887893    0.877849    0.929200
H     -7.567599    2.127325   -0.330551
H     -5.477595    1.662738    0.831079
H     -5.351490    1.033619   -0.843919
H     -4.415128   -0.478692    0.973792
H     -6.064595   -0.675714    1.646427
H     -6.851624   -1.724268   -0.458973
H     -5.278515   -1.421604   -1.267252
H     -6.000134   -3.651603    0.631866
H     -3.711047   -4.293183    0.650160
H      1.511144    0.033261   -2.894856
H      2.507356    1.901283   -1.476283
H      1.227720    1.608480   -0.246272
H      3.348174   -0.437500   -1.227186
H      2.019655   -0.818426   -0.098224
H      4.040911   -0.426522    1.194977
H      2.832775    0.827822    1.551133
H      4.025489    2.497604    0.196226
H      5.112699    1.781365    1.400865
H      5.031364    1.110530   -1.619147
H      6.246969    2.098725   -0.779004
H      7.081201   -0.193090   -1.263751
H      5.766487   -0.924087   -0.305433
H      7.402617   -0.374941    2.874116
H     -0.173835    2.248650   -2.215691
