46

C     -6.183868    1.283033   -1.085906
C     -4.867109    1.805100   -0.518364
C     -4.513239    1.099441    0.795116
C     -3.211036    1.620296    1.347227
C     -1.995430    1.140077    1.024244
C     -1.751282   -0.039473    0.116743
C     -2.023745   -1.343309    0.825362
C     -1.196632   -1.917537    1.719254
C      0.162104   -1.383824    2.093693
C      1.234674   -1.903631    1.129914
C      2.608414   -1.305142    1.464188
C      3.741714   -1.888737    0.601524
C      3.592560   -1.662866   -0.917331
C      3.414506   -0.194965   -1.345023
C      4.612047    0.684413   -0.964978
C      4.444227    2.062064   -1.522940
O      4.904629    2.343068   -2.661922
O      3.740095    3.020565   -0.800894
H     -7.011467    1.458224   -0.365768
H     -6.417960    1.815162   -2.032011
H     -6.107117    0.195446   -1.299821
H     -4.064416    1.643834   -1.269169
H     -4.960903    2.898762   -0.339639
H     -5.311568    1.305413    1.540876
H     -4.476312    0.000412    0.650868
H     -3.260159    2.470070    2.022330
H     -1.127085    1.635141    1.448913
H     -0.703658   -0.013673   -0.246914
H     -2.395029    0.032970   -0.783612
H     -2.955641   -1.853063    0.598838
H     -1.508345   -2.853150    2.175091
H      0.401514   -1.733510    3.121300
H      0.161304   -0.275017    2.117846
H      0.954845   -1.633988    0.090695
H      1.285349   -3.012470    1.202257
H      2.578720   -0.199506    1.361887
H      2.845318   -1.525597    2.528415
H      3.803436   -2.983304    0.787099
H      4.707364   -1.459131    0.942957
H      4.493910   -2.074714   -1.421637
H      2.729510   -2.252124   -1.293668
H      2.479989    0.222677   -0.913146
H      3.295137   -0.178471   -2.451055
H      4.696789    0.760454    0.139404
H      5.551402    0.237681   -1.357967
H      3.602445    3.952899   -1.172223
