42

C     -6.557844    1.497637    0.754903
C     -5.404747    0.530554    0.502040
C     -4.390391    0.566702    1.654475
C     -3.284901   -0.490168    1.502950
C     -2.306572   -0.165243    0.364074
C     -1.140187   -1.164532    0.342689
C     -0.212397   -0.967232   -0.866277
C      0.598210    0.334220   -0.782767
C      1.618159    0.401144   -1.891234
C      2.857572   -0.116204   -1.814818
C      3.404031   -0.797189   -0.581490
C      4.851853   -1.278982   -0.774409
C      5.872696   -0.132956   -0.866684
C      5.998566    0.607261    0.429393
O      6.664062    0.111481    1.377686
O      5.354498    1.829326    0.595783
H     -6.175921    2.536466    0.850470
H     -7.269948    1.457813   -0.096176
H     -7.099736    1.218738    1.683710
H     -4.910879    0.817058   -0.450293
H     -5.815913   -0.496614    0.393176
H     -3.936459    1.579408    1.728091
H     -4.925149    0.367639    2.609234
H     -2.719218   -0.533163    2.459653
H     -3.741466   -1.490654    1.336970
H     -1.912662    0.863227    0.508820
H     -2.839011   -0.211223   -0.609548
H     -1.552401   -2.196366    0.293256
H     -0.552601   -1.081781    1.283405
H     -0.808916   -0.978205   -1.805030
H      0.482432   -1.833060   -0.906452
H      1.083995    0.434967    0.210542
H     -0.087475    1.199032   -0.903381
H      1.321072    0.884232   -2.817824
H      3.492532   -0.027678   -2.692054
H      3.353276   -0.107886    0.287355
H      2.775201   -1.682412   -0.351114
H      4.913182   -1.894670   -1.698543
H      5.126533   -1.942414    0.074961
H      5.593370    0.574853   -1.675464
H      6.864792   -0.558526   -1.130974
H      5.418763    2.335399    1.470894
