41

C     -4.476643    1.648640   -0.275416
C     -5.871913    1.576051   -0.269314
C     -6.520687    0.400062   -0.660091
C     -5.763588   -0.715040   -1.058760
C     -4.363084   -0.639843   -1.064419
C     -3.712409    0.543382   -0.680339
C     -2.205838    0.606753   -0.658598
C     -1.626490   -0.038060    0.614139
C     -2.004300    0.756514    1.829578
O     -2.902849    0.338005    2.606282
O     -1.390661    1.977015    2.084369
O     -0.202260   -0.088604    0.531459
C      0.497316   -1.015159   -0.253113
O     -0.121753   -1.906110   -0.895659
C      1.965507   -0.967335   -0.330350
C      2.677457   -0.028825    0.308208
C      4.157007    0.066284    0.248289
C      4.975490   -1.035358   -0.072977
C      6.371756   -0.900892   -0.106240
C      6.961999    0.338450    0.190459
C      6.154014    1.428401    0.524659
C      4.764065    1.293476    0.559327
O      8.346365    0.503938    0.162226
O      7.173221   -1.995274   -0.428416
O     -6.403302   -1.891764   -1.445173
O     -7.914389    0.357276   -0.644036
H     -3.992367    2.564952    0.038815
H     -6.451476    2.435566    0.042869
H     -3.781285   -1.502750   -1.365308
H     -1.858706    1.660769   -0.739606
H     -1.814966    0.077801   -1.554236
H     -2.021865   -1.073473    0.725831
H      2.454873   -1.706432   -0.949703
H      2.152925    0.736232    0.869258
H      4.546003   -2.006702   -0.274686
H      6.605255    2.384229    0.759200
H      4.159889    2.153802    0.821194
H      8.974397   -0.255148   -0.073179
H      6.773837   -2.900874   -0.645819
H     -5.880160   -2.709485   -1.735940
H     -8.430381   -0.470474   -0.917222
