27

C      5.225174    0.079860   -0.579796
C      4.632960   -0.771609    0.537305
O      3.242628   -0.999281    0.314226
C      2.257191   -0.031177    0.536756
O      2.564769    1.100190    1.004746
C      0.856613   -0.360429    0.224323
C     -0.140513    0.520964    0.387646
C     -1.560409    0.227381    0.071368
C     -2.438479    1.303569   -0.141284
C     -3.791140    1.077390   -0.433730
C     -4.280124   -0.232043   -0.505242
C     -3.416172   -1.310558   -0.279284
C     -2.067688   -1.085976    0.011600
O     -5.624874   -0.453461   -0.796977
O     -4.654341    2.149444   -0.653523
H      4.755218    1.085295   -0.591690
H      6.317347    0.199035   -0.419183
H      5.057175   -0.412531   -1.560929
H      4.792716   -0.282013    1.522607
H      5.153606   -1.752221    0.551865
H      0.662407   -1.346267   -0.174032
H      0.095687    1.522029    0.730258
H     -2.071187    2.321651   -0.088683
H     -3.790897   -2.325439   -0.321655
H     -1.439203   -1.942506    0.210866
H     -6.007592   -1.390028   -0.854235
H     -4.330871    3.108733   -0.608556
