47

C     -4.894750    0.745685   -0.672060
C     -4.514708    0.838693    0.786068
C     -3.881050   -0.168241    1.426325
C     -3.485675   -1.476892    0.784717
C     -2.300905   -1.314034   -0.145795
C     -1.061473   -0.856458    0.357681
C      0.028716   -0.670552   -0.517051
C     -0.104978   -0.990915   -1.883124
C     -1.316850   -1.480794   -2.368901
C     -2.413867   -1.642206   -1.514229
O     -3.617687   -2.126106   -2.027375
O      0.916574   -0.824327   -2.717591
C      2.097601   -0.354738   -2.328526
O      3.008718   -0.204154   -3.185703
C      2.317319   -0.010121   -0.981430
C      1.258101   -0.160326   -0.077950
C      3.618329    0.523729   -0.513062
C      4.811271   -0.207036   -0.687253
C      6.028459    0.326414   -0.238103
C      6.063432    1.574912    0.396260
C      4.878722    2.291419    0.583395
C      3.662811    1.769396    0.135306
O      7.268552    2.109679    0.846089
O      4.783373   -1.465854   -1.287765
O     -0.926721   -0.579174    1.721980
C     -0.363081   -1.526784    2.620899
C     -4.852572    2.084390    1.563718
H     -5.474856    1.633864   -0.997630
H     -5.524556   -0.150833   -0.849064
H     -3.981211    0.692795   -1.298213
H     -3.642949   -0.049565    2.480829
H     -4.367774   -1.922791    0.280670
H     -3.203003   -2.192442    1.585256
H     -1.409769   -1.728435   -3.419207
H     -3.722421   -2.363568   -3.006892
H      1.401838    0.118253    0.958845
H      6.945376   -0.233024   -0.374918
H      4.900451    3.255496    1.075491
H      2.755557    2.342536    0.283370
H      8.144895    1.615080    0.726570
H      5.627395   -2.011005   -1.418855
H     -0.342955   -1.093079    3.641458
H      0.673568   -1.781209    2.316526
H     -0.977669   -2.450953    2.634629
H     -3.922210    2.539493    1.964976
H     -5.525292    1.828040    2.409452
H     -5.362079    2.839894    0.930183
