25

C     -0.724024   -2.306688   -0.004573
C      0.422052   -1.325333   -0.017820
C      1.727346   -1.851800   -0.026914
C      2.842800   -1.016588   -0.039371
C      2.674099    0.367216   -0.042991
C      1.394418    0.924726   -0.034225
C      0.240618    0.092433   -0.021456
C     -1.026821    0.736450   -0.013107
C     -1.073383    2.141480   -0.017836
C      0.112730    2.870353   -0.030501
O      0.077786    4.128761   -0.034793
O      1.281616    2.248216   -0.038096
O     -2.212826   -0.015870   -0.000356
C     -3.528751    0.528947    0.008765
O      4.119116   -1.575469   -0.048104
H     -1.348579   -2.173711   -0.912585
H     -0.369317   -3.359484   -0.003734
H     -1.333171   -2.167063    0.912859
H      1.886523   -2.923549   -0.024350
H      3.541726    1.015683   -0.052677
H     -2.015122    2.674113   -0.011831
H     -3.695965    1.139786   -0.903374
H     -3.680583    1.146426    0.919122
H     -4.263534   -0.301881    0.017994
H      4.951245   -0.997155   -0.057235
