25

C     -2.816234    1.152445   -0.909411
C     -2.755512    0.511650    0.476663
C     -2.137269   -0.897749    0.462231
C     -0.677010   -0.956676   -0.020918
C      0.284403   -0.175063    0.886849
C      1.716493   -0.422783    0.500014
C      2.230644    0.065192   -0.638556
C      3.663995   -0.179768   -1.014398
O      4.524291    0.406105   -0.075498
H     -3.299756    0.464960   -1.635564
H     -1.797779    1.413411   -1.264880
H     -3.411858    2.088110   -0.857418
H     -3.793395    0.428207    0.865786
H     -2.201467    1.175470    1.172825
H     -2.752978   -1.552992   -0.191918
H     -2.194836   -1.320658    1.488886
H     -0.368002   -2.025284   -0.031380
H     -0.605227   -0.587804   -1.065828
H      0.078948    0.914924    0.827369
H      0.141830   -0.499458    1.940343
H      2.348671   -0.988426    1.179482
H      1.605257    0.642076   -1.314521
H      3.854845   -1.273322   -1.048695
H      3.863093    0.232286   -2.029248
H      4.498854    1.385149   -0.239752
