33

C      4.102548    1.336228   -1.755083
O      4.413450    0.305185   -0.823455
C      3.460667   -0.402757   -0.073996
C      3.909124   -1.392125    0.812136
C      2.988830   -2.123239    1.573713
C      1.620841   -1.870720    1.458482
C      1.153236   -0.878288    0.582598
C      2.078685   -0.151604   -0.186893
C     -0.303203   -0.617839    0.458292
C     -1.192939   -1.689017    0.277570
O     -2.498997   -1.479187    0.156818
C     -3.037789   -0.265740    0.199553
C     -2.220863    0.872340    0.383581
C     -0.834416    0.685020    0.520269
O     -0.074698    1.674000    0.716501
C     -2.813666    2.147541    0.429876
C     -4.198277    2.283500    0.291927
C     -5.004663    1.155642    0.108439
C     -4.422537   -0.118406    0.062759
O     -6.382343    1.311322   -0.027074
O      5.275032   -1.644306    0.929302
H      5.044341    1.722805   -2.195428
H      3.467335    0.933742   -2.572216
H      3.581513    2.171317   -1.240815
H      3.333999   -2.887845    2.258030
H      0.926972   -2.441420    2.063427
H      1.716196    0.593848   -0.881759
H     -0.821674   -2.704562    0.225567
H     -2.212220    3.037182    0.570937
H     -4.646357    3.268420    0.327888
H     -5.044988   -0.993369   -0.078371
H     -6.994655    0.515092   -0.161193
H      5.631515   -2.352757    1.560129
