33

C     -2.981975    0.954148   -1.179476
N     -2.300892   -0.000820   -0.264070
C     -2.938713    0.099555    1.072896
C     -2.543758   -1.367279   -0.799634
C     -0.819261    0.298421   -0.225352
C      0.011204   -0.664059    0.677867
C      1.497012   -0.458389    0.495064
C      2.144872   -0.970748   -0.641448
C      3.515116   -0.764078   -0.826353
C      4.251828   -0.040499    0.120934
C      3.610927    0.474437    1.252229
C      2.240692    0.269088    1.439696
O      5.617455    0.172374   -0.052797
C     -0.520063    1.737830    0.160835
O     -0.256709    2.586550   -0.731863
O     -0.535822    2.136692    1.492613
H     -2.939826    1.995462   -0.791858
H     -4.061595    0.708017   -1.297828
H     -2.516635    0.939180   -2.190576
H     -2.835949    1.118752    1.500191
H     -4.029151   -0.116848    1.008773
H     -2.508800   -0.631650    1.789179
H     -3.622337   -1.532237   -1.022334
H     -1.974993   -1.539017   -1.740564
H     -2.268311   -2.155940   -0.068116
H     -0.419037    0.165513   -1.258482
H     -0.197754   -1.723349    0.432933
H     -0.254051   -0.524197    1.747286
H      1.587273   -1.528348   -1.383938
H      4.002464   -1.164777   -1.706045
H      4.175136    1.035630    1.986234
H      1.761036    0.677949    2.320104
H      6.110616   -0.187362   -0.861667
