45

C     -3.132078    2.118835    0.967848
C     -3.107937    1.114192   -0.198333
C     -3.672462   -0.288341    0.188209
C     -3.082455   -1.343543   -0.760537
C     -1.532353   -1.326081   -0.717545
C     -0.995264    0.061194   -0.276155
O     -1.817916    1.083039   -0.807260
O      0.322411    0.262517   -0.761587
C      1.310675   -0.322026    0.078654
C      2.127250    0.812344    0.760766
O      3.467576    0.399178    0.954205
C      4.160487    0.371559   -0.287021
C      3.388978   -0.409219   -1.396666
C      2.231818   -1.220008   -0.789203
O      2.765950   -2.261831   -0.010160
O      2.871284    0.486102   -2.348195
O      5.426603   -0.200919   -0.091199
C      1.521999    1.200869    2.116954
O      2.243843    2.258773    2.688665
O     -1.028470   -1.649455   -1.988968
O     -3.569653   -2.615668   -0.418896
O     -3.357530   -0.608230    1.522703
O     -2.743607    3.391567    0.525898
H     -2.429290    1.798421    1.764996
H     -4.152264    2.162475    1.413734
H     -3.799546    1.516246   -0.971641
H     -4.781728   -0.264751    0.064049
H     -3.425659   -1.083623   -1.791002
H     -1.172937   -2.073781    0.028712
H     -1.013459    0.132540    0.837562
H      0.878113   -0.987205    0.865670
H      2.094101    1.730114    0.124253
H      4.335119    1.419536   -0.620483
H      4.074758   -1.123423   -1.912046
H      1.643614   -1.662895   -1.627148
H      2.050247   -2.942848    0.091026
H      3.636510    0.785244   -2.905785
H      5.282184   -1.087830    0.331253
H      1.506252    0.323761    2.804564
H      0.475511    1.540546    1.972402
H      3.037895    1.858749    3.130298
H     -1.101091   -2.634824   -2.085164
H     -3.401921   -3.205777   -1.199353
H     -4.015097   -1.289089    1.821926
H     -3.520463    3.773567    0.039801
