34

C     -4.704650   -2.480552   -0.400015
O     -4.787439   -1.081859   -0.146274
C     -3.678429   -0.231541   -0.021669
C     -3.907837    1.124292    0.228208
C     -2.841669    2.025002    0.364150
C     -1.510791    1.560144    0.246709
C     -1.281514    0.188673   -0.008397
C     -2.356948   -0.694866   -0.139282
O     -0.044058   -0.278282   -0.129722
C      1.039590    0.485611   -0.026037
C      0.902912    1.859173    0.252652
C     -0.385950    2.400131    0.379450
O     -0.521103    3.631171    0.618101
O      2.034249    2.659993    0.428762
C      2.363648   -0.155760   -0.192961
C      2.591405   -1.425940    0.362620
C      3.826648   -2.059906    0.198142
C      4.844315   -1.438511   -0.537057
C      4.617773   -0.183824   -1.110487
C      3.383752    0.453081   -0.946957
O      6.079225   -2.060204   -0.707267
O     -3.112827    3.370864    0.614380
H     -4.198451   -2.663110   -1.371444
H     -4.152041   -2.985420    0.420335
H     -5.729768   -2.901338   -0.449164
H     -4.926571    1.480583    0.318319
H     -2.151603   -1.739129   -0.333734
H      1.971669    3.648840    0.639193
H      1.816257   -1.921923    0.934168
H      3.990856   -3.034141    0.640738
H      5.396127    0.294617   -1.691325
H      3.220967    1.407478   -1.430788
H      6.273744   -2.969998   -0.305610
H     -4.061486    3.716651    0.700798
