26

C      2.476153   -0.340815   -1.036599
C      2.060144   -0.135816    0.400939
C      1.111784    0.761548    0.749661
C      0.369026    1.641030   -0.227259
C     -0.602457    0.851348   -1.065306
C     -1.710445    0.241267   -0.595572
C     -2.558223   -0.554436   -1.557621
C     -2.089677    0.310789    0.843285
C     -2.971781   -0.515237    1.406723
C      2.721082   -0.942556    1.488578
H      2.835201    0.615198   -1.471322
H      3.300261   -1.079385   -1.119298
H      1.620628   -0.722720   -1.630347
H      0.867010    0.881599    1.802202
H     -0.176755    2.437382    0.321628
H      1.096523    2.159009   -0.887364
H     -0.367648    0.777610   -2.121123
H     -2.365851   -1.638073   -1.412398
H     -3.634096   -0.344704   -1.380352
H     -2.342476   -0.296372   -2.616866
H     -1.635526    1.054255    1.483998
H     -3.204889   -0.415439    2.458975
H     -3.460102   -1.302919    0.849294
H      3.476194   -1.645248    1.078995
H      1.955604   -1.534972    2.033347
H      3.230316   -0.262343    2.203801
