38

C     -4.322316   -3.516882    2.956429
O     -3.091296   -3.112629    2.365866
C     -2.809943   -1.808493    1.931361
C     -3.734432   -0.758613    2.048907
C     -3.418874    0.536364    1.618938
C     -2.163771    0.783802    0.988461
C     -1.231411   -0.280876    0.900037
C     -1.559478   -1.553889    1.371099
O     -0.031441   -0.092954    0.364090
C      0.373965    1.068809   -0.134998
C     -0.508324    2.162700   -0.157134
C     -1.788392    2.015966    0.400835
O     -2.593331    2.981008    0.328742
O     -0.124783    3.363187   -0.761319
C      1.747964    1.153377   -0.681465
C      2.263504    0.079487   -1.425447
C      3.575767    0.122073   -1.938153
C      4.375476    1.251092   -1.684323
C      3.869491    2.310844   -0.926439
C      2.569110    2.262648   -0.421807
O      5.678938    1.335812   -2.173572
O      4.112288   -0.931308   -2.695950
C      3.414259   -2.128363   -3.023831
O     -4.373067    1.526813    1.870373
H     -5.159650   -3.349720    2.246370
H     -4.498650   -2.952094    3.896173
H     -4.271041   -4.598525    3.196771
H     -4.700651   -0.928846    2.504742
H     -0.838049   -2.357897    1.288817
H     -0.735299    4.170324   -0.803442
H      1.633127   -0.780176   -1.611038
H      4.491336    3.172918   -0.720502
H      2.216279    3.082035    0.191198
H      6.097131    0.597695   -2.726956
H      4.077795   -2.780807   -3.627436
H      3.129930   -2.670733   -2.097423
H      2.509378   -1.891184   -3.622283
H     -4.181541    2.517034    1.890350
