33

C     -3.838245    2.251320    0.628412
C     -2.462785    2.244111    0.855208
C     -1.711576    1.093843    0.601615
C     -2.328699   -0.072724    0.097931
C     -3.738203   -0.063706   -0.094810
C     -4.476720    1.102386    0.161961
C     -4.395161   -1.223507   -0.527089
C     -3.675371   -2.392642   -0.759975
C     -2.292163   -2.413278   -0.587943
C     -1.597935   -1.260258   -0.182051
C     -0.121996   -1.331267   -0.100178
O      0.426549   -2.375828    0.346859
O      0.654977   -0.290610   -0.626945
C      2.016528   -0.081641   -0.362794
C      2.618590   -0.483057    0.842808
C      3.977017   -0.241027    1.068036
C      4.756522    0.414973    0.098032
C      4.144463    0.830637   -1.096907
C      2.785828    0.588603   -1.319263
N      6.155538    0.665623    0.325473
O      6.704161    0.299570    1.385705
O      6.913614    1.311738   -0.624144
H     -4.413813    3.145904    0.828506
H     -1.976310    3.132133    1.238042
H     -0.656900    1.126244    0.831227
H     -5.549484    1.122246    0.009731
H     -5.468904   -1.229006   -0.673630
H     -4.191117   -3.286646   -1.086333
H     -1.756201   -3.330370   -0.801462
H      2.038274   -0.955831    1.623207
H      4.415596   -0.559649    2.004999
H      4.714706    1.344396   -1.859891
H      2.329222    0.917320   -2.244336
