18

C     -1.504575    0.464654   -0.146755
C     -0.894543   -0.949914   -0.113952
C      0.647749   -0.957819   -0.214929
C      1.342411   -0.097463    0.817344
C      2.060212    0.845887    0.235044
C      1.908522    0.692090   -1.187771
O      2.445009    1.410508   -2.070699
O      1.071520   -0.378427   -1.452624
O      2.828575    1.801977    0.887229
O      1.274813   -0.283222    2.192774
O     -1.323363   -1.664504    1.018997
O     -2.902287    0.374030   -0.135707
H     -1.163176    1.051463    0.735153
H     -1.177592    0.990066   -1.071683
H     -1.276718   -1.492923   -1.005926
H      1.029001   -1.999810   -0.148691
H     -1.126347   -1.113915    1.820160
H     -3.239209    1.307323   -0.157963
