48

C     -4.719303    1.535163    2.111429
C     -3.604958    1.752691    1.131995
O     -3.679469    2.681420    0.341810
C     -2.398921    0.845598    1.105390
C     -2.572369   -0.373841    0.160565
C     -1.355038   -1.273157    0.330829
C     -0.302254   -1.245273   -0.504104
C     -0.399722   -0.427649   -1.734113
O      0.598451   -0.256445   -2.482483
C     -1.692243    0.146765   -2.118808
C     -2.738970    0.110309   -1.275343
O     -4.014706    0.559615   -1.662548
C     -4.347334    1.073302   -2.949016
C      0.959632   -2.021774   -0.157953
C      1.356919   -2.968842   -1.272183
C      2.317759   -3.882348   -1.100020
C      2.064496   -1.060857    0.250366
C      3.036435   -0.601980   -0.659269
C      4.014021    0.315956   -0.260451
C      4.030528    0.802726    1.058650
C      3.050876    0.357011    1.965160
C      2.077761   -0.559461    1.561654
O      5.024016    1.722466    1.430612
C      5.151049    2.292120    2.729444
O      4.962081    0.735466   -1.193720
O     -3.726719   -1.103250    0.507292
H     -5.664423    1.345493    1.560906
H     -4.840678    2.439556    2.743524
H     -4.510669    0.666286    2.770038
H     -1.507205    1.436292    0.796811
H     -2.195500    0.491509    2.140372
H     -1.293126   -1.853609    1.244467
H     -1.788493    0.559641   -3.113711
H     -3.756680    1.990053   -3.158246
H     -4.155686    0.305916   -3.728476
H     -5.424974    1.335303   -2.966171
H      0.750720   -2.677942    0.718424
H      0.846060   -2.931175   -2.230161
H      2.848873   -3.962214   -0.156283
H      2.578897   -4.555800   -1.909745
H      3.043410   -0.953700   -1.682698
H      3.029187    0.715969    2.984934
H      1.327023   -0.877261    2.275077
H      4.237155    2.869184    2.984403
H      5.322164    1.493384    3.481739
H      6.020201    2.981185    2.739377
H      5.691822    1.398517   -0.961876
H     -3.650093   -1.372320    1.460725
