39

C     -1.867471    0.578322    2.645853
O     -1.020052    1.192071    1.680768
C     -0.473114    0.480117    0.608706
C      0.906511    0.300509    0.546926
C      1.513641   -0.424918   -0.465033
C      0.744106   -1.042463   -1.468153
C     -0.645881   -0.832076   -1.450677
C     -1.266411   -0.068121   -0.431792
C     -2.725167    0.180379   -0.505030
C     -3.618517   -0.886518   -0.703066
C     -4.994876   -0.651533   -0.773744
C     -5.493700    0.652255   -0.653431
C     -4.609211    1.718542   -0.464492
C     -3.232408    1.486827   -0.393379
O     -6.863147    0.898080   -0.721312
O      1.277616   -1.866483   -2.456878
C      2.875125   -0.343353   -0.191117
C      4.023978   -0.787736   -0.855154
C      5.281582   -0.504356   -0.281521
C      5.366812    0.227052    0.930231
C      4.198255    0.686506    1.560597
C      2.971751    0.395011    0.972522
O      1.788950    0.771545    1.401265
O      6.601794    0.510518    1.512028
O      6.446800   -0.938959   -0.911392
H     -2.801032    0.206985    2.178126
H     -1.335602   -0.267601    3.130279
H     -2.133530    1.325083    3.421505
H     -1.246925   -1.266193   -2.240741
H     -3.251224   -1.901820   -0.788419
H     -5.672394   -1.483069   -0.920208
H     -4.989026    2.728405   -0.375510
H     -2.562326    2.326902   -0.259084
H     -7.529681    0.147087   -0.857796
H      2.209903   -2.244187   -2.420380
H      3.983825   -1.305647   -1.796843
H      4.248720    1.260546    2.476955
H      7.474125    0.204562    1.098068
H      6.418202   -1.462271   -1.778674
