28

C     -3.229469   -1.107351   -0.849276
C     -2.657782   -0.088850   -1.612897
C     -1.567270    0.646826   -1.123472
C     -1.052611    0.355617    0.164925
C     -1.640588   -0.674009    0.921830
C     -2.723332   -1.403939    0.416495
O     -3.306216   -2.422144    1.167780
C      0.058725    1.135608    0.754910
O      0.009863    2.395319    0.742484
C      1.260533    0.458470    1.358461
C      2.473697    0.504679    0.407493
C      3.706906    0.042961    1.137063
O      4.641609    0.852307    1.375828
O      3.815452   -1.274732    1.565783
N      2.252602   -0.327433   -0.782964
N     -0.976440    1.647859   -1.964375
H     -4.067179   -1.668709   -1.243323
H     -3.058453    0.120150   -2.596975
H     -1.277497   -0.895012    1.917934
H     -2.963869   -2.662271    2.090839
H      1.512001    0.983636    2.306353
H      1.032811   -0.596975    1.619656
H      2.632897    1.558973    0.082543
H      3.111664   -0.327500   -1.380219
H      1.467477    0.061273   -1.352344
H      2.024241   -1.311752   -0.511229
H     -0.073504    2.112411   -1.726896
H     -1.406269    1.884589   -2.886408
