40

C     -2.053961   -1.854200   -2.093253
O     -1.311183   -1.972168   -0.885026
C     -0.599082   -0.896217   -0.344855
C      0.802535   -0.940021   -0.374258
C      1.556696    0.150509    0.115220
C      0.890516    1.264474    0.656758
C     -0.507072    1.287108    0.712734
C     -1.263957    0.211917    0.224863
C     -2.739692    0.245636    0.362276
C     -3.466508    1.370651   -0.064337
C     -4.858171    1.403586    0.065170
C     -5.538913    0.318813    0.626297
C     -4.820566   -0.802597    1.061470
C     -3.428959   -0.838563    0.933324
O     -6.925798    0.365268    0.748020
O      1.621420    2.353064    1.134594
C      3.034048    0.150321    0.046002
C      3.684501    0.156956   -1.198385
C      5.081128    0.169834   -1.262527
C      5.839556    0.181845   -0.087173
C      5.194177    0.182058    1.157180
C      3.797629    0.168797    1.223875
O      7.230250    0.194551   -0.166026
O      1.417232   -2.084881   -0.889048
H     -2.863418   -1.103641   -1.988400
H     -1.378745   -1.555252   -2.922609
H     -2.508864   -2.835903   -2.336965
H     -1.004126    2.141637    1.156185
H     -2.957640    2.216461   -0.510113
H     -5.408450    2.272577   -0.272576
H     -5.338853   -1.644907    1.501705
H     -2.889124   -1.707853    1.287789
H     -7.447975   -0.404328    1.150437
H      1.166233    3.168484    1.527922
H      3.109411    0.153787   -2.116319
H      5.574507    0.172480   -2.226141
H      5.773147    0.192768    2.071829
H      3.311094    0.167753    2.191654
H      7.807615    0.203772    0.666710
H      2.419363   -2.224573   -0.884001
