42

C     -6.237751   -1.053683   -1.648682
O     -5.160493   -1.738236   -1.017452
C     -4.072010   -1.105017   -0.397321
C     -3.078606   -1.901253    0.186342
C     -1.976397   -1.305955    0.814280
C     -1.845996    0.092712    0.871187
C     -2.848814    0.887371    0.280357
C     -3.948756    0.295171   -0.345358
C     -0.614286    0.681058    1.549425
C     -0.722969    2.153368    1.902119
C     -0.469935    3.146455    1.040605
C      0.686716    0.360906    0.817652
C      1.824041    0.045358    1.580829
C      3.049579   -0.249891    0.975750
C      3.172240   -0.180012   -0.430283
C      2.038526    0.131964   -1.197015
C      0.807072    0.409411   -0.589612
O     -0.286822    0.742879   -1.387979
C      4.463545   -0.380575   -1.122434
O      4.485257   -0.931799   -2.257634
O      5.648745    0.091501   -0.549484
C      6.917098   -0.058464   -1.175545
O      4.105512   -0.640051    1.802445
O     -3.193050   -3.289636    0.137533
H     -6.768124   -0.414359   -0.911540
H     -5.857170   -0.434653   -2.488449
H     -6.953448   -1.798681   -2.052628
H     -1.214171   -1.935975    1.257049
H     -2.791433    1.966101    0.291335
H     -4.697996    0.937129   -0.788174
H     -0.573662    0.163477    2.534755
H     -1.036254    2.416035    2.908718
H     -0.573814    4.177900    1.360895
H     -0.169859    2.951492    0.018407
H      1.755922    0.004997    2.661472
H      2.116464    0.192224   -2.276142
H     -0.218533    0.784954   -2.398027
H      6.920592    0.461328   -2.156993
H      7.144485   -1.135907   -1.319979
H      7.698257    0.390115   -0.528195
H      4.968216   -1.034912    1.454039
H     -2.491920   -3.894846    0.548732
