39

C     -2.044233   -0.144831    3.489245
C     -1.355896    0.143286    2.156001
C     -1.693010   -0.905749    1.101904
C     -0.439447   -0.945419    0.267052
C      0.629321   -0.585772    1.303682
O      0.043584    0.180443    2.336620
N      1.788663    0.114666    0.708100
C      2.867090   -0.630502    0.315383
C      3.972851   -0.027344   -0.280036
C      3.957489    1.353475   -0.475414
N      2.871373    2.067965   -0.088882
C      1.795907    1.473251    0.490068
O      0.806746    2.186912    0.806760
N      5.064538    2.021632   -1.082578
F      5.035192   -0.779341   -0.662974
O     -0.516830    0.026145   -0.781316
C      0.195742   -0.072855   -1.981544
O      0.926061   -1.072537   -2.220575
C      0.131917    1.045367   -2.964115
O     -2.842145   -0.517982    0.346061
C     -3.442563   -1.343492   -0.610195
O     -3.020121   -2.514970   -0.808532
C     -4.626121   -0.847454   -1.368182
H     -3.145868   -0.181092    3.350769
H     -1.804620    0.659951    4.216033
H     -1.695810   -1.114546    3.904920
H     -1.684466    1.145798    1.800336
H     -1.860202   -1.901141    1.575727
H     -0.284888   -1.966745   -0.148341
H      0.972073   -1.535375    1.776687
H      2.875257   -1.705371    0.454206
H      5.912098    1.495745   -1.391648
H      5.037874    3.055539   -1.226072
H     -0.810458    1.615970   -2.827306
H      0.995398    1.724330   -2.805201
H      0.163292    0.646167   -3.999768
H     -5.555615   -1.194436   -0.871094
H     -4.600464   -1.232031   -2.409596
H     -4.619710    0.262342   -1.396183
