49

C      5.436444    0.774114   -0.985674
C      4.574339    0.790469    0.283033
C      5.119892   -0.168628    1.348104
C      3.107982    0.517639   -0.023155
C      2.664812   -0.700116   -0.598055
C      1.298107   -0.905300   -0.858403
C      0.362181    0.115263   -0.606081
C      0.803355    1.267182    0.041864
C      2.151570    1.489352    0.322656
C     -0.315470    2.135619    0.489626
C     -1.185885    1.166775    1.493885
C     -1.755138   -0.128590    0.672564
C     -1.180157   -0.006486   -0.724201
C     -1.632205   -1.151243   -1.721035
C     -2.339908   -2.322229   -1.006213
C     -3.440562   -1.868224   -0.008769
C     -3.331214   -0.357429    0.356842
C     -3.969467    0.480363   -0.927369
O     -3.055885    1.307938   -1.730680
C     -1.874111    1.408010   -0.993350
O     -1.007941    2.491266   -0.756966
C     -4.166773   -0.087966    1.619743
O      3.573487   -1.714840   -0.895868
H      6.460628    1.134235   -0.749676
H      5.000237    1.450511   -1.751606
H      5.520435   -0.245991   -1.412298
H      4.670800    1.815295    0.707205
H      5.176571   -1.209864    0.970299
H      6.141147    0.146118    1.651838
H      4.469252   -0.147466    2.248479
H      0.990687   -1.875168   -1.218033
H      2.446369    2.402764    0.824525
H      0.040898    3.047971    1.013429
H     -2.007147    1.745767    1.963969
H     -0.532231    0.820214    2.324370
H     -1.337854   -1.027427    1.183174
H     -0.795447   -1.548756   -2.323610
H     -2.304350   -0.773896   -2.515521
H     -2.781927   -3.004530   -1.764182
H     -1.569185   -2.904677   -0.454996
H     -3.343747   -2.487966    0.911033
H     -4.446232   -2.101927   -0.422242
H     -4.769211    1.155526   -0.552573
H     -4.504074   -0.198528   -1.624869
H     -2.495728    1.923855   -0.192276
H     -5.212477   -0.433845    1.472277
H     -3.737702   -0.619404    2.496292
H     -4.195222    0.998518    1.842710
H      3.278055   -2.594267   -1.303419
