44

C     -3.594910    1.175784   -2.541269
O     -3.096220    1.005059   -1.217425
C     -2.204513   -0.000544   -0.802170
C     -1.725140   -0.901824   -1.689010
C     -0.746990   -1.926686   -1.294493
O     -0.352555   -2.773966   -2.140387
C     -0.164432   -1.899759    0.089789
C     -1.269980   -1.437372    1.050322
C     -1.749468   -0.013921    0.676259
C     -0.543804    0.975032    0.894287
C      0.786828    0.450725    0.370956
C      1.855750    1.352174    0.233507
C      3.112281    0.921394   -0.195614
C      3.325442   -0.430523   -0.505069
C      2.260751   -1.340362   -0.374230
C      0.997335   -0.918772    0.081531
O      4.597516   -0.832185   -0.943941
C      4.949200   -2.167582   -1.291488
O      4.140317    1.857279   -0.310520
C     -0.370089    1.319825    2.361468
C     -0.396493    2.581939    2.801507
O     -2.845278    0.240763    1.561014
C     -3.416851    1.535044    1.482778
O      0.256451   -3.195537    0.448898
H     -4.164475    0.275481   -2.854515
H     -4.277321    2.049960   -2.559916
H     -2.756555    1.366291   -3.244120
H     -2.045887   -0.893536   -2.721405
H     -0.900126   -1.463697    2.098248
H     -2.126889   -2.147713    0.998531
H     -0.753463    1.904740    0.319357
H      1.712394    2.400286    0.468031
H      2.403452   -2.378495   -0.640917
H      4.811737   -2.838688   -0.417428
H      6.015778   -2.193925   -1.594827
H      4.328980   -2.516281   -2.144102
H      5.071574    1.602555   -0.616812
H     -0.184567    0.525793    3.077948
H     -0.560838    3.411895    2.121435
H     -0.252470    2.790917    3.856415
H     -4.419823    1.460541    1.013841
H     -2.820590    2.285827    0.928565
H     -3.558020    1.919891    2.513449
H      0.671959   -3.137828    1.349638
