33

C      4.235697    1.012678   -1.284607
C      3.010386    0.395213   -1.524251
C      2.156078    0.059139   -0.460392
C      2.539026    0.380118    0.870790
C      3.781508    1.025030    1.096005
C      4.620295    1.320514    0.017603
O      4.202083    1.409922    2.371637
C      1.667548    0.028200    2.012465
O      2.126849   -0.643625    2.974782
O      0.334106    0.425455    2.024577
C      0.847004   -0.631971   -0.783174
C     -0.286267    0.353469   -0.934405
O     -0.038122    1.518502   -1.352377
C     -1.692548   -0.027680   -0.646758
C     -2.098744   -1.375827   -0.636901
C     -3.427172   -1.720614   -0.361800
C     -4.370363   -0.714940   -0.095283
C     -3.974921    0.628226   -0.111516
C     -2.648938    0.969948   -0.387786
O     -5.694090   -1.052715    0.182028
O     -3.790696   -3.067011   -0.360620
H      4.888090    1.258220   -2.112715
H      2.729368    0.169643   -2.545802
H      5.570332    1.810321    0.190639
H      3.624357    1.325304    3.197466
H     -0.275411    0.179896    2.795349
H      0.617534   -1.370924    0.012956
H      0.938796   -1.209494   -1.728409
H     -1.395890   -2.167873   -0.859661
H     -4.695587    1.410230    0.091531
H     -2.369073    2.016183   -0.387047
H     -6.392761   -0.345016    0.376775
H     -4.738472   -3.368522   -0.168630
