39

C     -5.376239   -0.097852    0.954755
C     -3.890111    0.075071    0.907824
C     -3.278338    1.222646    1.178587
C     -1.797010    1.100793    1.083213
C     -1.570966   -0.357710    0.650091
C     -2.941503   -1.022966    0.557262
C     -1.959549   -1.447679    1.646041
C     -0.546950   -0.730842   -0.450294
C     -0.876086   -0.017007   -1.773262
C      0.878132   -0.401417    0.042482
C      1.970420   -0.990277   -0.862530
C      3.339266   -0.722660   -0.287770
C      4.063863    0.393069   -0.526165
C      3.579834    1.478730   -1.459002
C      5.402470    0.538173    0.150623
H     -5.650390   -1.141864    0.694715
H     -5.748024    0.126527    1.976571
H     -5.857301    0.590940    0.228948
H     -3.796524    2.134354    1.459252
H     -1.410476    1.822043    0.335310
H     -1.326780    1.292931    2.070720
H     -3.078821   -1.643456   -0.353989
H     -1.512638   -2.448490    1.469222
H     -2.218533   -1.097812    2.668838
H     -0.604734   -1.826493   -0.641179
H     -0.310853   -0.476715   -2.610188
H     -1.956257   -0.115434   -2.011100
H     -0.618834    1.061770   -1.725124
H      1.008750   -0.826271    1.063130
H      1.001696    0.699587    0.123950
H      1.831707   -2.091255   -0.924446
H      1.896179   -0.591862   -1.894465
H      3.744632   -1.479207    0.379970
H      3.466158    1.072999   -2.485932
H      2.608046    1.883376   -1.110744
H      4.298331    2.323073   -1.507185
H      6.064542   -0.304258   -0.141949
H      5.267997    0.528082    1.253081
H      5.904893    1.487360   -0.129263
