37

C     -0.159623    1.133587    0.240260
C      1.147001    1.922355    0.537116
O      1.100073    2.267234    1.920305
C     -0.040636    1.778860    2.517426
O     -0.308167    1.937521    3.737722
C     -0.853490    1.058314    1.566494
C     -1.946041    0.344168    1.876065
C     -2.699730   -0.466234    0.898692
C     -3.162295    0.082606   -0.309116
C     -3.894378   -0.702354   -1.212140
C     -4.181492   -2.041931   -0.899159
C     -3.745284   -2.579160    0.316104
C     -3.017710   -1.794423    1.214550
O     -4.902365   -2.849742   -1.777960
O     -4.341852   -0.154552   -2.413401
C      2.380117    1.100888    0.240163
C      3.147051    1.368769   -0.905824
C      4.275719    0.591437   -1.203919
C      4.638135   -0.466152   -0.360109
C      3.868629   -0.745581    0.776868
C      2.744247    0.028946    1.073316
O      5.760934   -1.235784   -0.659088
O      5.039843    0.862997   -2.337478
H     -0.775328    1.699649   -0.488571
H      0.039201    0.110978   -0.150151
H      1.155220    2.864320   -0.055082
H     -2.245167    0.276152    2.915434
H     -2.984682    1.124560   -0.538472
H     -3.972303   -3.607961    0.565463
H     -2.689848   -2.227771    2.151776
H     -5.240896   -2.506948   -2.668992
H     -4.148682    0.808597   -2.662258
H      2.869066    2.179407   -1.568236
H      4.139138   -1.565642    1.429793
H      2.155364   -0.210004    1.950017
H      6.047102   -2.007608   -0.068074
H      4.803129    1.620501   -2.967590
