49

C      4.802206   -1.016869   -1.126455
C      4.726536   -0.228437    0.189170
C      5.031615   -1.129689    1.392530
C      3.405766    0.570323    0.344905
C      2.157179   -0.233518    0.778378
C      0.992621    0.708869    0.949640
O      0.883138    1.389558    2.003975
N      0.048857    0.861061   -0.122870
C      0.354094    0.385966   -1.462286
C     -0.979592    0.369099   -2.211997
C     -1.933964    1.270889   -1.396662
C     -1.273504    1.459316   -0.006471
N     -2.117095    0.721421    0.945343
C     -3.277672    0.270589    0.259360
C     -4.397321   -0.366398    0.809788
C     -5.456728   -0.715405   -0.042669
C     -5.388484   -0.419578   -1.416416
C     -4.264229    0.235021   -1.942098
C     -3.225500    0.582443   -1.073241
C     -2.011023    0.838721    2.370745
O     -1.813694    1.967619    2.894208
C     -2.096297   -0.369439    3.245732
O     -2.143443    2.518787   -2.010509
C      1.036951   -0.952432   -1.375203
O      0.969799   -1.777296   -2.325624
N      1.815934   -1.261634   -0.211519
H      5.847388   -1.350437   -1.301433
H      4.499450   -0.377891   -1.983002
H      4.161565   -1.919722   -1.102822
H      5.540982    0.529085    0.142211
H      6.067343   -1.524130    1.316000
H      4.333599   -1.992406    1.432076
H      4.949982   -0.550228    2.336726
H      3.585169    1.356802    1.111911
H      3.192328    1.109208   -0.604274
H      2.348276   -0.722809    1.757514
H      1.045800    1.107669   -1.948964
H     -0.846339    0.742751   -3.250641
H     -1.380217   -0.668404   -2.270781
H     -1.197897    2.532114    0.279338
H     -4.461705   -0.587776    1.864893
H     -6.329966   -1.213011    0.358752
H     -6.206586   -0.694869   -2.069185
H     -4.205666    0.464194   -2.998022
H     -1.202849   -0.415259    3.902947
H     -2.129419   -1.293518    2.631057
H     -3.008166   -0.312149    3.875677
H     -2.570834    2.349182   -2.890238
H      2.121615   -2.247382   -0.049494
