30

C     -4.629232    1.053982    0.091714
C     -3.672953    2.057130   -0.048381
C     -2.327023    1.779171    0.192362
C     -1.916767    0.490228    0.577642
C     -2.886481   -0.545510    0.676537
C     -4.241185   -0.237542    0.450130
C     -2.522671   -1.957844    0.937007
O     -3.318921   -2.710820    1.560410
O     -1.328084   -2.481589    0.449874
C     -0.492620    0.291990    0.925794
O     -0.171595   -0.477429    1.872881
O      0.491700    1.010862    0.236295
C      1.889699    0.846165    0.465148
C      2.386670   -0.458454   -0.170787
C      3.882862   -0.691736    0.073994
C      4.729781    0.295385   -0.674482
O      5.247862    1.268430   -0.065978
O      4.927253    0.161841   -2.045644
H     -5.673254    1.273843   -0.090858
H     -3.976304    3.056639   -0.332288
H     -1.606917    2.584126    0.107798
H     -5.000384   -1.007212    0.519551
H     -1.080556   -3.450589    0.610702
H      2.417605    1.706589    0.003138
H      2.101871    0.857848    1.556825
H      2.178256   -0.443662   -1.263054
H      1.826210   -1.312488    0.266139
H      4.103014   -0.638273    1.162814
H      4.147876   -1.715109   -0.267978
H      4.514287   -0.605973   -2.561485
