48

C      5.632828   -0.119266   -0.092669
O      4.537934    0.757590   -0.243773
C      3.589160    0.202976   -1.142370
C      2.599897    1.291878   -1.612364
C      1.683266    1.718718   -0.449504
C      1.034482    0.486145    0.209502
C      2.159909   -0.507424    0.586711
O      2.899419   -0.898271   -0.561539
C      1.614985   -1.761168    1.284170
O      0.928461   -2.575876    0.373667
O      0.137676   -0.124957   -0.710073
C     -1.170626   -0.223315   -0.178361
C     -2.007832   -1.111813   -1.118662
C     -3.465513   -1.206215   -0.627052
C     -4.027390    0.192849   -0.300475
C     -3.030426    1.058959    0.516350
O     -1.737137    1.075748   -0.072685
C     -2.973831    0.748553    2.029533
O     -4.133191    1.217606    2.662033
O     -5.255183    0.087524    0.374508
O     -3.541102   -2.030864    0.508483
O     -1.950188   -0.656337   -2.449947
O      0.710008    2.642041   -0.873387
O      3.298601    2.411630   -2.091717
H      6.331832    0.314597    0.651271
H      5.310505   -1.112616    0.290658
H      6.188932   -0.232729   -1.049256
H      4.098254   -0.163929   -2.064541
H      1.969644    0.866786   -2.429289
H      2.308514    2.229500    0.316920
H      0.546328    0.834712    1.153348
H      2.828522   -0.017138    1.332104
H      2.469218   -2.332558    1.711406
H      0.941971   -1.466699    2.120977
H      0.565253   -3.333760    0.901237
H     -1.124200   -0.727512    0.814262
H     -1.568741   -2.133529   -1.105858
H     -4.091393   -1.647811   -1.438416
H     -4.199368    0.725396   -1.265428
H     -3.405868    2.103700    0.441509
H     -2.867363   -0.340112    2.216133
H     -2.089134    1.263435    2.467075
H     -4.030122    1.000371    3.624982
H     -5.920508   -0.237588   -0.287097
H     -3.463695   -2.968399    0.190798
H     -2.227266    0.295792   -2.465978
H      0.222404    2.244735   -1.641310
H      3.672075    2.158644   -2.976216
