41

C     -3.671392    0.953400   -1.459126
C     -2.233818    0.551444   -1.176761
N     -2.423946    0.569475    0.284652
C     -3.841465    0.942395    0.055835
C     -4.890702   -0.036316    0.543106
O     -5.065376   -1.145509   -0.029373
O     -5.644463    0.275536    1.667005
C     -2.168432   -0.728972    0.960698
C     -0.729678   -0.845169    1.518076
C      0.379315   -1.202960    0.499366
C      0.100301   -2.539220   -0.144300
O     -0.507346   -2.614356   -1.245264
O      0.476589   -3.707318    0.506828
N      0.559413   -0.141441   -0.510238
C      1.302131    1.030310    0.002565
C      2.693780    1.191206   -0.642329
C      3.694384    0.073228   -0.266065
C      4.906108    0.167434   -1.154903
O      5.141472   -0.733629   -2.002571
O      5.762115    1.258294   -1.059238
N      4.101531    0.162045    1.143148
H     -4.233221    0.169438   -2.011798
H     -3.751428    1.973789   -1.893077
H     -1.515513    1.332727   -1.513041
H     -2.000085   -0.452040   -1.594990
H     -1.904301    1.366048    0.725612
H     -4.054170    1.967173    0.439235
H     -2.421535   -1.596821    0.314487
H     -2.827801   -0.800721    1.853356
H     -0.468007    0.087775    2.059717
H     -0.734261   -1.643140    2.293871
H      1.326036   -1.330689    1.069842
H      1.032005   -0.526418   -1.361962
H      1.394175    1.032975    1.108905
H      0.710818    1.935927   -0.249063
H      2.565868    1.223062   -1.747522
H      3.111949    2.176570   -0.340170
H      3.219331   -0.917888   -0.439124
H      4.843785   -0.547914    1.342880
H      3.292145   -0.044381    1.769791
H      4.473689    1.114651    1.363871
