21

C     -2.486015   -0.165172    0.717558
C     -1.859971    0.793415   -0.334975
C     -0.409591    0.451155   -0.285277
C      0.639309    1.012151   -1.015066
C      1.944551    0.535270   -0.798623
C      2.174304   -0.493646    0.148227
C      1.094186   -1.036295    0.871610
C     -0.184452   -0.538021    0.628066
N     -1.378436   -0.949286    1.256768
O      3.467274   -0.967113    0.363869
O      2.996194    1.090224   -1.526512
O     -2.365798    0.535767   -1.616797
H     -3.235078   -0.845498    0.257753
H     -2.964729    0.415036    1.535154
H     -2.007019    1.860631   -0.051046
H      0.449841    1.799146   -1.733860
H      1.248716   -1.820938    1.601140
H     -1.457031   -1.684954    1.993604
H      3.657421   -1.701738    1.035447
H      3.953606    0.781843   -1.407267
H     -3.277282    0.928024   -1.639774
