31

C     -2.809493   -1.354063   -0.619225
C     -2.487549    0.102348   -0.377238
C     -3.452021    1.038440   -0.261571
C     -4.906270    0.776896   -0.218788
O     -5.677871    1.553977   -0.840831
C     -5.501867   -0.329452    0.598383
C     -1.072343    0.548351   -0.296450
C     -0.064099   -0.272944    0.027229
C      1.332037    0.198711    0.113781
C      2.349618   -0.694555    0.477280
C      3.666539   -0.237773    0.555375
C      3.932272    1.109774    0.265542
C      2.870597    1.946113   -0.090780
O      3.085816    3.157919   -0.354984
O      1.631027    1.469689   -0.152983
O      4.671916   -1.145073    0.920706
C      6.050980   -0.810538    1.037476
H     -2.940204   -1.880381    0.348850
H     -3.721969   -1.465173   -1.240190
H     -1.994894   -1.846353   -1.190063
H     -3.163040    2.082284   -0.208900
H     -6.426522    0.030861    1.096620
H     -5.764978   -1.186116   -0.055542
H     -4.795607   -0.660564    1.388086
H     -0.859815    1.598000   -0.466818
H     -0.263757   -1.312025    0.257505
H      2.124495   -1.731320    0.697135
H      4.936918    1.509363    0.312678
H      6.441421   -0.454328    0.060792
H      6.619062   -1.714237    1.339087
H      6.189600   -0.027833    1.812973
