43

C     -1.338649    1.392476    1.850077
C     -0.770350    0.060660    1.412385
C     -1.461403   -1.085610    1.562565
C     -2.833777   -1.157444    2.107292
C     -3.916550   -0.811164    1.384732
C     -3.883653   -0.408043   -0.039985
C     -3.143451   -1.127609   -0.997042
C     -3.146959   -0.728240   -2.336987
C     -3.901049    0.377922   -2.736330
C     -4.660249    1.081377   -1.797983
C     -4.659406    0.685332   -0.456666
C     -2.999548   -1.533774    3.549967
C      0.611743   -0.025013    0.875371
C      1.540741    0.917972    1.093716
C      2.924428    0.842252    0.577974
C      3.274524    0.071454   -0.546500
C      4.601785    0.054685   -0.978800
C      5.551464    0.811929   -0.276412
C      5.134629    1.565473    0.823646
O      5.968383    2.258499    1.463637
O      3.860229    1.555838    1.201313
O      4.931832   -0.716123   -2.103433
C      6.242545   -0.818131   -2.650351
H     -0.929178    2.214289    1.226603
H     -2.439897    1.437220    1.739428
H     -1.076742    1.573235    2.913381
H     -0.989808   -2.030703    1.319115
H     -4.877403   -0.760826    1.884843
H     -2.581394   -2.008316   -0.715823
H     -2.572024   -1.282684   -3.068134
H     -3.904498    0.683772   -3.775008
H     -5.251582    1.932423   -2.110507
H     -5.252513    1.240557    0.259594
H     -2.091017   -2.048958    3.929114
H     -3.864451   -2.220421    3.675696
H     -3.168490   -0.617824    4.154208
H      0.879929   -0.920626    0.329799
H      1.311423    1.758422    1.735730
H      2.535047   -0.488455   -1.102739
H      6.591761    0.828068   -0.573871
H      6.601192    0.182735   -2.971741
H      6.936921   -1.249931   -1.898718
H      6.215466   -1.486693   -3.535284
