36

C     -2.045505   -1.183115   -0.700606
C     -2.769480    0.021330   -0.148697
C     -2.644026    0.408649    1.140106
C     -1.747112   -0.254603    2.160175
C     -0.533800    0.626163    2.483501
C      0.420160    0.715513    1.311321
C      1.263973   -0.313455    1.069581
C      2.232324   -0.354181   -0.089927
O      3.220408    0.633699    0.127989
C      3.906392    0.904626   -1.074839
O      2.860691   -1.626051   -0.127810
C      2.106879   -2.529203   -0.907940
C      0.386270    1.940634    0.427921
C     -3.663236    0.827724   -1.055155
H     -0.950242   -1.046901   -0.600121
H     -2.268543   -1.335237   -1.776892
H     -2.360795   -2.097968   -0.156529
H     -3.179469    1.294851    1.472688
H     -1.413135   -1.265370    1.847154
H     -2.337706   -0.391748    3.090915
H     -0.000464    0.205155    3.364004
H     -0.880903    1.638603    2.785026
H      1.233127   -1.178571    1.728066
H      1.653528   -0.136331   -1.024554
H      4.362540   -0.015603   -1.503134
H      4.728450    1.617559   -0.859677
H      3.231026    1.384930   -1.816833
H      1.067018   -2.628478   -0.525218
H      2.100433   -2.219139   -1.976108
H      2.583083   -3.529301   -0.850644
H     -0.390835    2.657888    0.765168
H      0.144104    1.651673   -0.616043
H      1.366569    2.459560    0.454236
H     -3.293716    1.873735   -1.110853
H     -3.688282    0.413613   -2.084510
H     -4.699726    0.829347   -0.656100
