18

C      2.909215   -0.495259    0.212306
C      1.899969   -1.232994    1.084579
O      0.776051   -0.401507    1.368082
C     -0.234726   -0.126604    0.440141
O     -0.210729   -0.662631   -0.701222
C     -1.320983    0.792484    0.838537
C     -2.357217    1.168340    0.073435
C     -2.589526    0.712932   -1.334746
H      3.227606    0.443534    0.712886
H      2.462877   -0.248963   -0.773607
H      3.800844   -1.136587    0.049406
H      1.572449   -2.171812    0.587192
H      2.389373   -1.504415    2.043588
H     -1.269512    1.198444    1.841441
H     -3.080889    1.852541    0.500231
H     -2.716840   -0.389566   -1.365484
H     -1.741888    1.020719   -1.982437
H     -3.516076    1.181344   -1.727888
