27

C     -3.718474    1.488896    0.544271
C     -2.960053    0.240030    0.104728
C     -2.365209   -0.499846    1.311625
C     -1.639917   -1.789784    0.899795
C     -0.419633   -1.518816    0.064792
C      0.675028   -0.955599    0.587782
C      1.881843   -0.685320   -0.209105
O      1.925062   -0.986072   -1.434339
O      2.984371   -0.093505    0.416776
C      4.183409    0.258327   -0.271030
C      3.979161    1.523632   -1.096222
H     -4.134853    2.003931   -0.346994
H     -4.556769    1.214006    1.219357
H     -3.035978    2.188512    1.072332
H     -3.658586   -0.431672   -0.440187
H     -2.148613    0.543716   -0.591503
H     -1.665727    0.169400    1.858787
H     -3.186524   -0.771968    2.010191
H     -2.338097   -2.437258    0.326198
H     -1.341730   -2.351571    1.811664
H     -0.438803   -1.814478   -0.977443
H      0.687295   -0.682425    1.636140
H      4.516676   -0.578526   -0.922688
H      4.978993    0.447501    0.480064
H      3.641271    2.353336   -0.439930
H      3.219438    1.352374   -1.887047
H      4.936418    1.813180   -1.578570
