35

C      2.518031   -2.286443   -2.265789
C      2.349384   -1.276183   -1.156754
C      3.512561   -0.817813   -0.511847
C      3.452767    0.114976    0.523110
C      2.206136    0.607313    0.930461
C      1.032519    0.173021    0.311253
C      1.076730   -0.775164   -0.742672
C     -0.161523   -1.164699   -1.319267
O     -0.196737   -2.002998   -2.259539
C     -1.368163   -0.609000   -0.836570
C     -2.640018   -0.948518   -1.361139
C     -3.794630   -0.355376   -0.830677
C     -3.714849    0.570250    0.212218
C     -2.455621    0.908663    0.734107
C     -1.293608    0.327367    0.217724
O     -0.122514    0.669702    0.733931
O     -4.906288    1.128445    0.699446
C     -4.975875    2.081092    1.755479
O     -2.767292   -1.868409   -2.403055
O      4.655089    0.525440    1.118999
C      4.746604    1.468146    2.182324
H      3.585222   -2.545704   -2.433362
H      1.988640   -3.227058   -2.006227
H      2.127256   -1.872658   -3.218919
H      4.485312   -1.187647   -0.813695
H      2.133653    1.331538    1.731026
H     -4.765772   -0.616147   -1.232924
H     -2.365423    1.622713    1.541892
H     -6.037606    2.348647    1.932917
H     -4.419155    3.000843    1.477350
H     -4.557634    1.648006    2.688617
H     -3.671262   -2.119167   -2.786439
H      5.813007    1.603740    2.455709
H      4.334790    2.447975    1.860492
H      4.196268    1.095106    3.071820
