29

C      1.077129   -2.266300    0.873829
C      1.549276   -0.947501    0.311330
C      2.942224   -0.773452    0.224050
C      3.495553    0.482518   -0.026806
C      2.661915    1.585942   -0.169673
C      1.273910    1.437138   -0.128075
C      0.683887    0.154675    0.006797
C     -0.735174    0.083257   -0.136467
C     -1.498777    1.286620   -0.098580
C     -2.921502    1.208591   -0.078063
C     -3.549458   -0.016706   -0.302476
C     -2.803083   -1.169050   -0.516115
C     -1.409864   -1.119983   -0.438937
O     -3.457541   -2.365424   -0.803259
O     -3.749642    2.303562    0.183227
C     -0.796879    2.510810   -0.180118
O     -1.400248    3.609605   -0.288425
O      0.525704    2.525653   -0.216510
O      4.876687    0.649446   -0.103513
H      0.978281   -3.016472    0.062008
H      0.126412   -2.152045    1.434053
H      1.812692   -2.661807    1.607180
H      3.606339   -1.610544    0.405670
H      3.094922    2.568603   -0.312708
H     -4.631174   -0.070728   -0.319373
H     -0.873750   -2.016255   -0.697188
H     -2.946316   -3.226031   -0.961262
H     -3.443813    3.138083    0.663558
H      5.512291   -0.132205    0.005845
