45

C     -1.746292   -3.568183   -0.350845
N     -1.129567   -2.236417   -0.456047
C     -1.379322   -1.660503   -1.798809
C     -0.728685   -0.262646   -1.977365
C     -0.622915    0.550135   -0.649802
C     -0.721659    2.097576   -0.917910
C     -2.123761    2.674514   -0.672629
C     -2.587020    2.438219    0.781965
C     -2.094404    1.098504    1.373045
C     -1.804117    0.085636    0.247997
C     -1.519007   -1.365006    0.696357
C     -0.350683   -1.364797    1.687950
C      0.854937   -0.669548    1.103164
C      0.740395    0.233755    0.011494
C      1.923254    0.783051   -0.529095
C      3.175204    0.515906    0.032391
C      3.261026   -0.332060    1.147524
C      2.111337   -0.919379    1.673172
O      4.305294    1.111502   -0.547768
C      5.638885    0.928836   -0.083386
H     -1.345302   -4.240433   -1.139531
H     -1.501265   -4.028860    0.630079
H     -2.852042   -3.503146   -0.454773
H     -0.966429   -2.336331   -2.580002
H     -2.475461   -1.583794   -1.981419
H      0.272919   -0.380829   -2.446367
H     -1.348758    0.294512   -2.713945
H     -0.403556    2.340466   -1.955340
H     -0.033440    2.653507   -0.242074
H     -2.119395    3.765598   -0.884667
H     -2.841028    2.203211   -1.379614
H     -3.698129    2.465865    0.806167
H     -2.222352    3.269753    1.423841
H     -1.172299    1.291536    1.962623
H     -2.864630    0.691551    2.063587
H     -2.744074    0.046366   -0.350643
H     -2.428166   -1.750622    1.214271
H     -0.641908   -0.870662    2.638805
H     -0.091380   -2.416428    1.940245
H      1.875949    1.428107   -1.397424
H      4.213609   -0.554477    1.608539
H      2.202269   -1.585151    2.522914
H      6.329479    1.513060   -0.725339
H      5.920210   -0.143824   -0.142463
H      5.732282    1.291930    0.961918
