45

C     -2.461415    3.352051   -0.044424
N     -2.195972    1.960489   -0.444211
C     -1.160118    1.889250   -1.494437
C     -0.972828    0.442356   -1.985871
C     -0.741658   -0.546506   -0.813238
C     -0.775548   -2.005074   -1.363635
C     -0.688820   -3.047382   -0.240038
C     -1.845355   -2.872422    0.750305
C     -1.870361   -1.450909    1.321311
C     -1.923851   -0.398693    0.185022
C     -1.947807    1.048797    0.704820
C     -0.656329    1.374515    1.503153
C      0.607764    0.761452    0.937358
C      0.589179   -0.179500   -0.127439
C      1.825225   -0.639131   -0.634531
C      3.038459   -0.261063   -0.051860
C      3.031826    0.618100    1.040768
C      1.828411    1.127585    1.522509
O      4.225700   -0.777167   -0.593143
C      5.529529   -0.478341   -0.105027
H     -3.140937    3.389497    0.833863
H     -2.969165    3.882838   -0.877326
H     -1.523418    3.898315    0.192389
H     -0.194446    2.303898   -1.131683
H     -1.472358    2.506998   -2.365093
H     -0.115595    0.405214   -2.693665
H     -1.883565    0.149421   -2.554429
H      0.019266   -2.189126   -2.113059
H     -1.731690   -2.171185   -1.909350
H      0.282400   -2.958004    0.292977
H     -0.740218   -4.065692   -0.681915
H     -1.730071   -3.600753    1.581685
H     -2.810254   -3.086734    0.240160
H     -2.765009   -1.340385    1.971548
H     -0.971211   -1.313509    1.958063
H     -2.881187   -0.567304   -0.362236
H     -2.809857    1.133321    1.404915
H     -0.521169    2.469419    1.606013
H     -0.781185    0.990220    2.538710
H      1.870805   -1.286314   -1.496051
H      3.952863    0.927352    1.515601
H      1.847594    1.821578    2.354248
H      5.726636    0.611605   -0.184954
H      6.278852   -1.020611   -0.717231
H      5.626887   -0.808465    0.950794
