28

C      3.080046    0.765705    1.281939
C      3.306047    0.912321   -0.220715
C      3.023037   -0.373991   -0.955307
C      1.796402   -0.854195   -1.236135
C      0.493448   -0.204830   -0.840036
C     -0.234915   -1.070473    0.197156
C     -1.481786   -0.382110    0.773926
C     -2.614773   -0.253472   -0.254740
C     -3.880936    0.316680    0.390049
O     -4.908582    0.408790   -0.558660
H      2.012044    0.573301    1.507875
H      3.379872    1.704342    1.793662
H      3.694130   -0.068426    1.683749
H      4.372689    1.178604   -0.382857
H      2.698702    1.746307   -0.631214
H      3.879588   -0.938923   -1.312399
H      1.733609   -1.795676   -1.774819
H      0.637922    0.819838   -0.443556
H     -0.129121   -0.118578   -1.754875
H      0.457767   -1.285770    1.040114
H     -0.519466   -2.045037   -0.257458
H     -1.842430   -0.990725    1.632108
H     -1.209379    0.622755    1.165281
H     -2.300565    0.422458   -1.078228
H     -2.846146   -1.252802   -0.684157
H     -3.673058    1.318096    0.832230
H     -4.217284   -0.356708    1.207133
H     -4.706859    1.202518   -1.120067
