29

C      3.863120   -1.731299    0.356154
C      2.718327   -0.752137    0.329330
C      1.494832   -1.132080    0.762766
C      0.285453   -0.230766    0.769331
C     -0.287799   -0.076002   -0.618288
C     -1.399551    0.640118   -0.899169
C     -1.860037    0.715000   -2.331928
C     -2.230378    1.330143    0.167648
C     -3.484816    0.523900    0.507975
O     -3.130761   -0.711101    1.065704
C      2.989408    0.646116   -0.168454
H      3.548241   -2.737648    0.706600
H      4.285063   -1.835547   -0.665447
H      4.655286   -1.354778    1.036691
H      1.351459   -2.144535    1.131229
H      0.552044    0.759329    1.195156
H     -0.482881   -0.690512    1.425669
H      0.232361   -0.562662   -1.441374
H     -2.784720    1.322615   -2.426327
H     -1.069782    1.182094   -2.957062
H     -2.072061   -0.306291   -2.713490
H     -1.651988    1.520721    1.094875
H     -2.541216    2.327852   -0.210717
H     -4.093799    1.100755    1.239148
H     -4.094369    0.365932   -0.409985
H     -3.983508   -1.181008    1.257435
H      4.050045    0.755162   -0.479590
H      2.350034    0.873315   -1.046373
H      2.791993    1.383314    0.637518
