28

C     -3.966884   -0.747246   -0.178907
C     -2.866865   -0.083555   -1.007386
C     -1.881029    0.726176   -0.150415
C     -0.929881   -0.171637    0.659023
C      0.023021    0.633032    1.562650
C      1.061197    1.474881    0.799631
C      1.931264    0.643195   -0.104615
C      2.827823   -0.224606    0.384718
C      3.688894   -1.041807   -0.535394
O      4.532648   -1.881414    0.204191
H     -4.487234    0.004998    0.451244
H     -4.711176   -1.211153   -0.859938
H     -3.548344   -1.545837    0.467257
H     -3.349966    0.606903   -1.732513
H     -2.322083   -0.856127   -1.592514
H     -2.441163    1.403215    0.531170
H     -1.283940    1.358241   -0.840707
H     -1.526447   -0.835665    1.318802
H     -0.347607   -0.823464   -0.027399
H     -0.573430    1.305920    2.216465
H      0.556346   -0.075513    2.233004
H      0.549168    2.255710    0.200095
H      1.705295    2.007160    1.532841
H      1.834890    0.772321   -1.179453
H      2.937224   -0.342116    1.459810
H      3.038846   -1.671059   -1.179552
H      4.288455   -0.371891   -1.193001
H      5.260978   -1.308663    0.561575
