43

C     -9.006054   -0.673040    0.099278
C     -8.383903    0.702453   -0.113629
C     -7.096703    0.825620    0.646268
O     -7.109925    1.321114    1.806194
C     -5.838457    0.329324    0.054461
C     -4.667963    0.405286    0.695612
C     -3.431656   -0.102577    0.076606
C     -2.257926   -0.011565    0.712561
C     -0.979031   -0.491094    0.129543
C      0.160554    0.106613    0.529184
C      1.499107   -0.209503   -0.015383
C      2.592845    0.373792    0.481151
C      3.928431    0.072694   -0.062979
C      5.019610    0.671917    0.429344
C      6.394366    0.429299   -0.073688
C      6.749095   -0.737133   -0.783381
C      8.062715   -0.922592   -1.226377
C      9.036039    0.042944   -0.961598
C      8.699984    1.194123   -0.246700
C      7.388731    1.384917    0.199454
C     -0.971177   -1.609149   -0.887981
H     -8.320530   -1.467670   -0.265629
H     -9.960057   -0.740725   -0.464812
H     -9.217744   -0.837700    1.177528
H     -8.200202    0.861842   -1.198204
H     -9.096990    1.483793    0.228168
H     -5.877902   -0.112128   -0.935002
H     -4.619221    0.844177    1.685879
H     -3.484910   -0.528096   -0.917961
H     -2.225674    0.480212    1.679290
H      0.101639    0.890053    1.278136
H      1.603424   -0.906463   -0.837343
H      2.502049    1.079451    1.300054
H      4.004693   -0.624397   -0.886745
H      4.896841    1.409535    1.215172
H      6.029221   -1.519103   -0.979553
H      8.327833   -1.820419   -1.769793
H     10.051978   -0.104028   -1.304763
H      9.456249    1.939470   -0.036729
H      7.148160    2.284966    0.752358
H     -1.920886   -2.181895   -0.870214
H     -0.816034   -1.191464   -1.904764
H     -0.170617   -2.342856   -0.657440
