49

C      7.639154   -2.039199    0.585819
C      6.954381   -1.464276    1.820521
O      5.556402   -1.298482    1.590074
C      5.018004   -0.258815    0.823510
O      5.775982    0.611282    0.313914
C      3.556351   -0.236831    0.600969
C      2.841312    0.786468    0.087146
C      3.467147    2.121802   -0.242235
C      1.388690    0.571939   -0.131696
C      0.686361    1.221217   -1.068487
C     -0.784681    0.976155   -1.260980
C     -1.645197    1.946054   -0.420494
C     -1.504724    1.692456    1.091801
C     -3.127471    1.986955   -0.884237
C     -3.825188    0.634513   -1.143270
C     -4.023126   -0.217184    0.122687
C     -5.134129   -1.278889   -0.039916
C     -4.770088   -2.327551   -1.102139
C     -5.403171   -1.968673    1.303770
H      8.713816   -2.214922    0.803094
H      7.166208   -3.004183    0.305278
H      7.559111   -1.332771   -0.266715
H      7.091510   -2.171540    2.665542
H      7.418685   -0.494593    2.104200
H      3.034275   -1.148017    0.871788
H      4.038393    2.047987   -1.191159
H      2.699199    2.915848   -0.345238
H      4.133914    2.453720    0.580650
H      0.884826   -0.179751    0.466550
H      1.168753    1.930129   -1.729300
H     -1.032793   -0.081526   -1.022749
H     -1.011126    1.133874   -2.338027
H     -1.252792    2.974082   -0.596312
H     -2.267807    2.263332    1.661933
H     -0.507582    2.035534    1.439915
H     -1.594500    0.617742    1.341119
H     -3.159445    2.552313   -1.842090
H     -3.733458    2.581812   -0.166070
H     -4.821793    0.864414   -1.580011
H     -3.267881    0.055961   -1.909399
H     -3.072889   -0.733698    0.371017
H     -4.291760    0.452442    0.969477
H     -6.075219   -0.773894   -0.352292
H     -3.802537   -2.815953   -0.856467
H     -4.694491   -1.857683   -2.104826
H     -5.559405   -3.107501   -1.158311
H     -5.710903   -1.220440    2.065225
H     -6.226022   -2.707885    1.199250
H     -4.492298   -2.493773    1.664152
