47

C      6.185348    1.552393    0.417061
C      6.464594    0.266631   -0.373577
C      7.974671    0.072415   -0.552611
C      5.847446   -0.962069    0.323111
N      4.391723   -0.845040    0.406997
C      3.542767   -0.983785   -0.744511
O      4.015144   -1.443078   -1.819052
C      2.111467   -0.629174   -0.701410
C      1.580049    0.159078    0.240151
C      0.121683    0.516926    0.227673
C     -0.747513   -0.694116    0.599341
C     -2.231051   -0.328741    0.761691
C     -2.909369   -0.005148   -0.576701
C     -4.382964    0.224716   -0.377483
C     -5.288434   -0.856482   -0.467837
C     -6.637577   -0.599401   -0.241463
C     -7.092002    0.641440    0.066547
C     -6.236663    1.733149    0.177511
C     -4.864149    1.517107   -0.043051
O     -8.462174    0.600701    0.238126
C     -8.895303   -0.750201    0.024879
O     -7.699392   -1.482442   -0.277848
H      6.606671    1.481606    1.442915
H      6.640607    2.425233   -0.097784
H      5.091841    1.732966    0.489290
H      6.014359    0.374094   -1.384715
H      8.413452    0.943896   -1.083951
H      8.476115   -0.036690    0.433219
H      8.174730   -0.836343   -1.159554
H      6.266900   -1.057256    1.349181
H      6.109502   -1.890799   -0.229537
H      3.967663   -0.735573    1.354805
H      1.478055   -0.994839   -1.501536
H      2.201026    0.602295    1.007331
H     -0.149290    0.900837   -0.778739
H     -0.048185    1.331321    0.964956
H     -0.640792   -1.492409   -0.167448
H     -0.387771   -1.107781    1.567370
H     -2.749468   -1.197275    1.224829
H     -2.333534    0.533434    1.457023
H     -2.455868    0.903474   -1.026471
H     -2.753709   -0.843457   -1.290875
H     -4.952153   -1.858358   -0.702897
H     -6.615086    2.714899    0.429843
H     -4.176686    2.348895    0.047346
H     -9.367040   -1.151196    0.946385
H     -9.599640   -0.795852   -0.832056
