15

C     -1.318986   -0.810467    0.310385
C     -0.559083    0.416025   -0.205657
C      0.910770    0.094983   -0.329707
O      1.341466   -0.424451   -1.394816
C      1.842030    0.325145    0.792997
O      1.416609    0.788516    1.884034
O      3.198292    0.032056    0.667859
O     -1.076696    0.794865   -1.455069
O     -2.669022   -0.495967    0.523076
H     -1.223316   -1.659073   -0.406433
H     -0.882062   -1.135350    1.279229
H     -0.705151    1.249251    0.520619
H      3.586954   -0.341092   -0.189758
H     -0.744006    1.713058   -1.635804
H     -3.117799   -0.547500   -0.360957
