22

C      3.362826    1.358565    0.121485
C      2.090789    0.575220    0.071607
C      2.122818   -0.819801    0.062989
C      0.924496   -1.532990    0.012582
O      0.982848   -2.787967   -0.053009
C     -0.308602   -0.835016    0.004046
C     -1.593790   -1.455737   -0.008687
C     -2.742007   -0.662403   -0.125114
C     -2.656557    0.728521   -0.169530
C     -1.408361    1.349371   -0.105368
C     -0.241782    0.585474   -0.023905
O      0.928893    1.214256    0.018512
O     -3.821769    1.485666   -0.270024
O     -1.798499   -2.833399    0.113364
H      3.143650    2.445465    0.183010
H      3.958638    1.164253   -0.794964
H      3.953614    1.062771    1.013947
H      3.071081   -1.345066    0.080348
H     -3.716632   -1.134289   -0.153199
H     -1.341539    2.430182   -0.131298
H     -3.794892    2.498186   -0.302145
H     -1.115223   -3.491261    0.455352
