21

C      0.027843   -0.839126   -0.755291
C      0.340524    0.457170   -0.308322
C     -0.634146    1.188650    0.413435
C     -1.892012    0.622414    0.649022
C     -2.197512   -0.661879    0.191785
C     -1.233242   -1.398302   -0.511842
O     -1.529668   -2.682679   -0.965850
O     -3.462636   -1.189576    0.448354
O     -0.390869    2.470710    0.911224
C      1.719420    1.008695   -0.579684
C      2.592071    0.861239    0.630343
O      2.908684    1.874697    1.306979
O      3.048996   -0.393218    1.023933
H      0.766400   -1.419193   -1.295386
H     -2.637811    1.185096    1.196928
H     -0.850788   -3.235696   -1.475944
H     -3.732624   -2.115503    0.138780
H      0.490767    2.953150    0.804221
H      2.196527    0.468070   -1.425643
H      1.659738    2.071444   -0.896335
H      2.810337   -1.226163    0.499292
