38

C      6.244588    0.963525   -0.045162
O      5.360284    0.010622   -0.626165
C      3.966793    0.009926   -0.454511
C      3.204203   -0.989726   -1.085541
C      1.814104   -1.017675   -0.927910
C      1.163889   -0.060449   -0.131161
C      1.923130    0.948890    0.477552
C      3.311360    0.981521    0.325718
C     -0.308659   -0.060697    0.025089
C     -1.030493   -1.241094    0.287206
C     -2.438865   -1.154434    0.395610
O     -3.103623   -2.177252    0.699796
C     -3.084931    0.092767    0.212868
C     -4.499734    0.282705    0.247942
C     -5.024695    1.579999    0.200532
C     -4.192407    2.687567    0.047000
C     -2.812373    2.507856   -0.055185
C     -2.257424    1.228382    0.028456
O     -0.941267    1.102156   -0.063673
O     -4.749244    3.963219   -0.013557
O     -5.425465   -0.763677    0.296458
O     -0.306492   -2.437935    0.464084
C     -0.849803   -3.736303    0.678196
O      3.810285   -1.963623   -1.879196
H      6.176145    0.922408    1.062462
H      7.284800    0.722793   -0.345720
H      5.997426    1.984009   -0.406699
H      1.243273   -1.776528   -1.448500
H      1.441040    1.707154    1.082816
H      3.865441    1.768200    0.819091
H     -6.096983    1.725164    0.249983
H     -2.165042    3.366158   -0.187994
H     -4.172337    4.788464   -0.127999
H     -5.228281   -1.715022    0.023600
H     -1.522036   -4.015269   -0.160413
H     -1.389149   -3.772540    1.647823
H     -0.018938   -4.470051    0.717193
H      4.811481   -1.991211   -2.030092
