28

C      3.175453    1.154119   -0.460140
C      3.970786    0.085389    0.009535
C      3.387706   -1.160010    0.306652
C      2.013144   -1.297655    0.117943
C      1.241368   -0.261278   -0.341794
C      1.790139    0.986913   -0.638923
C     -0.059509   -0.724467   -0.402874
C     -0.007254   -2.042108    0.049818
N      1.263523   -2.386920    0.358490
C     -1.289317    0.061278   -0.774765
C     -1.778115    0.923291    0.418080
C     -2.889152    1.840408   -0.009946
O     -2.623139    3.006808   -0.406374
O     -4.207344    1.392134   -0.016460
N     -2.217510    0.109717    1.557021
O     -2.296040   -0.818877   -1.210068
H      3.634326    2.108730   -0.682182
H      5.035203    0.226243    0.144955
H      3.987787   -1.982839    0.673098
H      1.175115    1.803500   -0.993893
H     -0.854625   -2.706013    0.161365
H      1.589345   -3.308809    0.725110
H     -1.002865    0.740107   -1.613015
H     -0.931777    1.562985    0.757896
H     -4.960483    1.997262   -0.320857
H     -1.387061   -0.365544    1.978485
H     -2.878930   -0.633757    1.235314
H     -2.880773   -0.310606   -1.830716
