23

C      3.993897    0.121993    0.638542
C      2.532516    0.413585    0.533199
O      2.044705    1.372478    1.190469
N      1.717620   -0.338224   -0.379185
C      0.282345   -0.248981   -0.432236
C     -0.378251   -0.357203   -1.667921
C     -1.775863   -0.292793   -1.721566
C     -2.522253   -0.135258   -0.552292
C     -1.881635   -0.055118    0.695550
C     -0.476884   -0.110741    0.744267
C     -2.660752    0.100470    1.948431
O     -2.107809    0.583591    2.972241
O     -3.997111   -0.288303    2.035824
O      0.358534   -0.515272   -2.841274
H      4.164617   -0.974189    0.596994
H      4.397092    0.508463    1.598604
H      4.529088    0.607651   -0.203629
H      2.205381   -0.926819   -1.091970
H     -2.286582   -0.358023   -2.674009
H     -3.597549   -0.058863   -0.635949
H      0.024796   -0.082734    1.703065
H     -4.473388   -0.775942    1.288335
H     -0.092515   -0.591735   -3.745491
