19

C     -1.506390   -1.205115    0.076946
C     -0.643830    0.023583   -0.269320
C     -1.373300    1.299995    0.132660
O     -0.828592    2.137087    0.902400
O     -2.643420    1.586275   -0.365572
C      0.674972   -0.099679    0.471961
O      0.679958   -0.212245    1.730052
O      1.883052   -0.083653   -0.234839
C      3.148303   -0.190986    0.406034
N     -0.384769    0.035324   -1.715943
H     -1.765945   -1.212868    1.157963
H     -2.451066   -1.212092   -0.506122
H     -0.956112   -2.141270   -0.161408
H     -3.120396    0.968760   -1.010007
H      3.217151   -1.155603    0.952149
H      3.949383   -0.153603   -0.360339
H      3.288211    0.652732    1.114584
H     -1.289276    0.047801   -2.241411
H      0.122066    0.915554   -1.970429
