16

C     -1.230078   -0.740600   -0.217523
C     -1.305666    0.608813   -0.182972
C     -0.078557    1.402417    0.035908
O     -0.149010    2.660157    0.068110
C      1.230078    0.740600    0.217523
C      1.305665   -0.608813    0.182975
C      0.078557   -1.402417   -0.035906
O      0.149010   -2.660157   -0.068108
O      2.506397   -1.306945    0.346499
O      2.345855    1.559125    0.419869
O     -2.506399    1.306945   -0.346491
O     -2.345854   -1.559124   -0.419876
H      3.405703   -0.875296    0.501766
H      3.288162    1.223188    0.555453
H     -3.405707    0.875296   -0.501743
H     -3.288157   -1.223187   -0.555484
