29

C     -2.061280    0.411289   -0.710020
C     -3.591207    0.454715   -0.646819
C     -4.118186   -0.711952    0.135984
O     -5.267042   -1.165180   -0.111730
N     -3.344564   -1.275081    1.200843
C     -2.034829   -0.780545    1.503364
O     -1.407836   -1.247055    2.492297
C     -1.441447    0.349908    0.697820
N      0.015843    0.215350    0.597926
C      0.750018   -0.909108    0.095432
O      0.257849   -2.053404   -0.092146
C      2.125500   -0.522861   -0.195137
C      3.195832   -1.267864   -0.687123
C      4.422194   -0.608702   -0.886435
C      4.550095    0.767542   -0.597560
C      3.452832    1.497789   -0.106669
C      2.250203    0.820218    0.086575
C      0.954624    1.294848    0.558131
O      0.679662    2.484979    0.865646
H     -1.748063   -0.476393   -1.303024
H     -1.693005    1.318894   -1.235725
H     -4.000429    0.431625   -1.679984
H     -3.920877    1.397137   -0.159112
H     -3.741847   -2.058733    1.766448
H     -1.682713    1.294994    1.232125
H      3.087441   -2.321218   -0.910440
H      5.272695   -1.159728   -1.266170
H      5.498014    1.264656   -0.757266
H      3.540524    2.553881    0.112770
