19

C     -2.319717   -1.093492   -0.239084
C     -1.290084   -0.695586   -0.972807
C     -0.229334   -0.038614   -0.115841
O     -0.788491   -0.113431    1.196291
C     -2.019554   -0.734995    1.124134
O     -2.761076   -0.950568    2.117521
C      1.088872   -0.833017   -0.183150
C      2.114290   -0.298596    0.776015
O      2.137336   -0.712817    1.964894
O      3.019586    0.679878    0.375337
C     -0.042225    1.398796   -0.527342
O      0.218526    1.686385   -1.727126
O     -0.120753    2.412524    0.423339
H     -3.206991   -1.592633   -0.605288
H     -1.225510   -0.834760   -2.044550
H      1.498494   -0.802972   -1.216506
H      0.893510   -1.900512    0.062195
H      3.015774    1.042956   -0.570287
H      0.017349    3.381452    0.162254
