20

C     -1.511496    0.242781    0.043197
C     -0.611677    1.266748    0.809593
C      0.882814    0.890222    0.674362
C      1.016433   -0.526590    1.180007
O      1.755904   -0.813423    2.108167
C      0.177385   -1.574361    0.476923
C     -0.642609   -0.857698   -0.633025
C      0.344999   -0.159461   -1.610304
C      1.175872    0.819358   -0.805496
O      2.031812    1.515831   -1.327863
H     -2.109325    0.772460   -0.730407
H     -2.228162   -0.230652    0.749365
H     -0.894359    1.285747    1.885200
H     -0.775445    2.289580    0.404383
H      1.546800    1.602991    1.210857
H     -0.505061   -2.062487    1.205611
H      0.837302   -2.348304    0.029273
H     -1.283376   -1.584549   -1.177206
H      1.007548   -0.911211   -2.090688
H     -0.215358    0.383016   -2.401950
