41

C     -5.674694    0.643283    1.007142
C     -4.786260    1.646402    0.272442
C     -3.855059    0.985264   -0.759608
C     -2.854038   -0.029646   -0.177458
C     -1.841931    0.613913    0.785589
C     -0.804823   -0.391404    1.311892
C      0.218971   -0.808766    0.240976
C      1.381423   -1.634442    0.836863
C      2.691048   -0.837008    1.031079
C      2.545344    0.269691    2.075442
O      3.126704   -0.260529   -0.201599
C      3.693579   -0.999934   -1.245687
O      3.931553   -2.231268   -1.111434
C      4.071394   -0.305030   -2.514207
C      5.461599    0.307665   -2.395232
H     -6.430425    1.191154    1.608532
H     -6.205165   -0.010890    0.282984
H     -5.071501    0.020317    1.699715
H     -4.202276    2.239410    1.006625
H     -5.444579    2.360952   -0.267615
H     -4.478000    0.468298   -1.521979
H     -3.291552    1.783056   -1.290873
H     -2.309296   -0.476456   -1.035081
H     -3.394082   -0.855615    0.331582
H     -1.325152    1.462817    0.286741
H     -2.385304    1.017917    1.665393
H     -0.275061    0.083602    2.163849
H     -1.322123   -1.292926    1.707670
H      0.602818    0.088286   -0.291058
H     -0.297026   -1.438666   -0.514484
H      1.596061   -2.480630    0.149090
H      1.083121   -2.100075    1.802223
H      3.472878   -1.536508    1.403375
H      1.866344    1.068490    1.710204
H      3.538499    0.725511    2.273816
H      2.153647   -0.144676    3.028735
H      3.331973    0.496219   -2.728073
H      4.055172   -1.026485   -3.359705
H      5.486480    1.050580   -1.569241
H      6.216455   -0.483943   -2.199839
H      5.723286    0.822070   -3.343819
