44

C      5.023824    1.925078   -1.053630
C      3.503389    1.754725   -1.054184
C      3.034334    0.468638   -0.332083
C      3.292973    0.558551    1.183508
C      1.533500    0.228846   -0.627582
C      1.029926   -1.140985   -0.129352
C     -0.313788   -1.574845   -0.768664
C     -0.675624   -3.006751   -0.348574
C     -1.499283   -0.579497   -0.581997
C     -2.293911   -0.634297    0.759719
C     -1.425291   -0.240093    1.968981
C     -3.600993    0.224550    0.722415
C     -3.353130    1.709401    0.407336
C     -4.656951   -0.353054   -0.234528
H      5.299818    2.768045   -1.721796
H      5.520330    1.004213   -1.426549
H      5.396191    2.163288   -0.036372
H      3.032902    2.648967   -0.589533
H      3.177288    1.719624   -2.116875
H      3.612770   -0.390501   -0.739361
H      4.371742    0.704899    1.392658
H      3.001645   -0.384029    1.689648
H      2.720953    1.399918    1.629996
H      0.940411    1.042088   -0.156699
H      1.372572    0.280860   -1.726971
H      1.791731   -1.908413   -0.391039
H      0.955771   -1.135107    0.972011
H     -0.126296   -1.622460   -1.865694
H      0.099546   -3.716072   -0.709580
H     -0.736085   -3.094519    0.756411
H     -1.648269   -3.305962   -0.794363
H     -2.208426   -0.803859   -1.404908
H     -1.153699    0.454882   -0.772610
H     -2.622017   -1.681520    0.933704
H     -2.052604    0.020877    2.847379
H     -0.800002   -1.097673    2.286975
H     -0.776487    0.629382    1.732076
H     -4.060452    0.180234    1.735534
H     -2.594388    2.137736    1.094265
H     -4.294257    2.284150    0.542203
H     -3.014398    1.846561   -0.640822
H     -4.374391   -0.198183   -1.296263
H     -4.798420   -1.439124   -0.050084
H     -5.632453    0.151429   -0.065795
