19

C      0.363676    1.543861   -0.910892
C      0.288087    0.054496   -0.508520
C     -1.195201   -0.398214   -0.359408
C     -1.952371    0.340204    0.707367
O     -2.535615    1.422942    0.436928
O     -2.004330   -0.161814    2.001499
C      1.088912   -0.147895    0.804076
C      1.169943   -1.588322    1.218778
O      0.403685   -2.036669    2.111555
O      2.077913   -2.440070    0.602303
O      0.904603   -0.715741   -1.515399
H     -0.254896    1.737302   -1.813433
H      0.005601    2.199979   -0.089288
H      1.413013    1.824752   -1.145097
H     -1.725356   -0.257985   -1.327064
H     -1.235600   -1.486319   -0.138517
H      2.127788    0.222375    0.661588
H      0.647351    0.452521    1.628995
H      0.412799   -0.565405   -2.365471
