17

C     -0.380784   -0.644898   -0.407333
C      0.422695   -0.021540    0.741608
C      1.897620   -0.152701    0.485471
O      2.523933   -1.129671    0.976683
C      2.617108    0.811851   -0.361688
O      2.009729    1.781665   -0.887673
O      3.978837    0.655285   -0.588575
C     -1.893667   -0.664784   -0.127726
N     -2.481202    0.674866   -0.128665
H     -0.180851   -0.094840   -1.352877
H     -0.045287   -1.695594   -0.552143
H      0.170560   -0.533742    1.696000
H      0.165411    1.052632    0.855612
H     -2.097152   -1.161133    0.846288
H     -2.391828   -1.267775   -0.916985
H     -2.173366    1.189164   -0.985800
H     -2.141759    1.201213    0.707803
