31

C     -2.093867    0.373643    0.022339
C     -1.125185    0.472409   -1.195595
C      0.335480    0.036071   -0.903026
C      0.422509   -1.287294   -0.097495
C     -0.462975   -1.267278    1.166702
C     -1.932609   -0.928967    0.848594
O     -2.521255   -2.012467    0.173611
O      0.041881   -0.355771    2.109487
O      0.066041   -2.380697   -0.904248
N      1.033233    1.114464   -0.195272
C      2.321049    1.288587   -0.097178
N      3.258406    0.406462   -0.729504
N      2.809679    2.398143    0.655931
O     -1.640126   -0.217891   -2.308909
N     -1.994753    1.548380    0.896771
H     -3.131550    0.374396   -0.383049
H     -1.089540    1.540232   -1.506184
H      0.825448   -0.105218   -1.891707
H      1.472399   -1.439678    0.243209
H     -0.446501   -2.287165    1.619936
H     -2.460295   -0.796710    1.823578
H     -3.504759   -1.918545    0.273699
H      0.859880   -0.762887    2.498233
H      0.814398   -2.527102   -1.540348
H      4.282651    0.576138   -0.620740
H      2.967176   -0.408222   -1.311060
H      3.835787    2.566036    0.749629
H      2.146055    3.054330    1.124876
H     -1.764170   -1.166590   -2.057279
H     -1.002869    1.723207    1.166675
H     -2.321618    2.389986    0.368326
