21

C     -0.626246   -1.082263   -0.708050
C     -1.441461    0.242730   -0.830253
N     -0.620099    1.301883   -0.239349
C      0.602462    0.755048    0.205155
C      1.601023    1.427884    0.785244
C      2.809868    0.674267    1.182859
O      3.777105    1.263842    1.733331
C      2.857216   -0.784636    0.919955
O      3.865863   -1.466887    1.241402
C      1.693677   -1.427595    0.270378
C      0.644894   -0.663039   -0.052568
C     -2.759893    0.150740   -0.119687
O     -2.803587    0.132144    1.140214
O     -3.936172    0.052709   -0.856006
H     -1.140007   -1.845342   -0.082827
H     -0.412712   -1.504253   -1.713706
H     -1.613849    0.478380   -1.903225
H     -0.881297    2.312417   -0.193540
H      1.526510    2.493894    0.959272
H      1.690788   -2.489976    0.061399
H     -4.834083   -0.021947   -0.393004
