27

C      3.558107    0.602876    0.925008
C      2.526485    0.406243   -0.182079
C      1.270818   -0.301657    0.349097
C      0.191183   -0.474500   -0.747145
C      0.653649   -1.440998   -1.800636
O      0.803917   -2.661203   -1.525567
O      0.932808   -0.988887   -3.084389
N     -1.082277   -0.968111   -0.182458
C     -1.958513    0.121536    0.291193
C     -3.052955   -0.433318    1.209337
C     -2.605063    0.816175   -0.879615
O     -3.087205    0.140429   -1.827337
O     -2.710193    2.203909   -0.910615
H      4.453792    1.113077    0.512185
H      3.868856   -0.379045    1.341337
H      3.136203    1.229973    1.739134
H      2.987707   -0.196133   -0.994107
H      2.249758    1.400641   -0.595123
H      0.854090    0.302161    1.183195
H      1.551133   -1.295593    0.763606
H      0.033861    0.509349   -1.245393
H     -0.877783   -1.631708    0.602682
H     -1.371980    0.860485    0.880310
H     -2.597031   -0.886560    2.115215
H     -3.648715   -1.209344    0.681968
H     -3.731252    0.383786    1.537172
H     -2.349401    2.776419   -0.156975
