20

C      1.622776    0.172683   -0.659837
C      0.881892   -0.114865    0.658745
C     -0.557736   -0.658600    0.450915
C     -1.547026    0.374496   -0.157903
C     -1.332839    0.564083   -1.632171
O     -1.190268    1.721920   -2.106765
O     -1.344107   -0.529635   -2.489813
O     -2.868662   -0.067466    0.021970
O     -1.056517   -1.075542    1.698327
O      0.848182    1.040425    1.458264
O      2.994361    0.343055   -0.422429
H      1.463594   -0.655517   -1.387851
H      1.237946    1.109052   -1.111750
H      1.449089   -0.914559    1.192230
H     -0.512555   -1.545531   -0.225445
H     -1.413325    1.359964    0.348589
H     -3.164660    0.246082    0.916625
H     -0.642589   -1.955469    1.900704
H      1.754753    1.150119    1.848044
H      3.377692   -0.564695   -0.300451
