13

C      0.154540   -0.868697   -0.188043
C      1.528374   -0.301748   -0.331597
O      1.890601    0.207239   -1.425965
O      2.394154   -0.299089    0.757496
P     -0.992309    0.415114    0.395810
O     -0.542120    0.924265    1.746830
O     -2.547782   -0.238239    0.528802
O     -1.015037    1.694945   -0.710835
H     -0.200740   -1.258332   -1.165443
H      0.169198   -1.705017    0.541893
H      3.323752    0.096057    0.680999
H     -2.456593   -0.981427    1.177236
H     -1.706038    2.314929   -0.365809
