18

C      0.479641   -0.331361   -0.201555
C      1.258018    0.329790    0.944132
C      2.728819    0.123785    0.764577
O      3.292617   -0.886433    1.261630
O      3.469076    1.021750    0.006082
C     -1.047967   -0.185360   -0.030329
C     -1.472339    1.257358   -0.130214
O     -1.321780    1.895229   -1.206086
O     -2.025578    1.895554    0.972732
N     -1.756603   -0.990852   -1.032156
H      0.735536   -1.413995   -0.223699
H      0.794474    0.110923   -1.173098
H      0.941042   -0.104726    1.917365
H      1.050746    1.421033    0.967931
H     -1.325804   -0.564499    0.979501
H     -2.790002   -0.878822   -0.912215
H     -1.521592   -2.002126   -0.904483
H     -1.488304   -0.697247   -2.000116
