17

C     -1.040934    1.046184   -0.156823
C     -1.628737   -0.289243    0.291991
C     -0.909930   -1.422491   -0.439619
N      0.544884   -1.293739   -0.334052
C      1.186228   -0.176664   -0.133512
C      0.453488    1.112984    0.175462
C      2.656732   -0.208765   -0.071019
O      3.309032    0.836161    0.191630
O      3.338953   -1.397295   -0.302634
H     -1.185562    1.168429   -1.253218
H     -1.572281    1.878342    0.353431
H     -2.713994   -0.320986    0.055012
H     -1.504130   -0.409078    1.390755
H     -1.193458   -1.402704   -1.514130
H     -1.222618   -2.401266   -0.019116
H      0.910863    1.951132   -0.393257
H      0.571462    1.329000    1.259481
