23

C      2.354284    0.131096   -0.519526
C      1.490122    0.161251    0.744694
C      0.060347   -0.414026    0.564406
C      0.115082   -1.926203    0.272557
C     -0.794456    0.342698   -0.501256
C     -2.205821   -0.201002   -0.546975
O     -2.615222   -0.789349   -1.582508
O     -3.064496   -0.068996    0.541970
N     -0.832983    1.791220   -0.247236
H      3.360643    0.535867   -0.282348
H      1.914849    0.760113   -1.319937
H      2.481439   -0.906921   -0.889180
H      2.014102   -0.415296    1.538204
H      1.432237    1.205688    1.117569
H     -0.441866   -0.298664    1.550661
H      0.461019   -2.119219   -0.764611
H      0.799456   -2.437237    0.982811
H     -0.890540   -2.380553    0.395923
H     -0.338380    0.176798   -1.503435
H     -2.774409    0.394231    1.394126
H     -1.071769    1.989200    0.751590
H      0.091366    2.222616   -0.473490
H     -1.545005    2.246685   -0.864241
