23

C      0.737412   -1.274907    0.478070
C      1.974596   -1.018316    1.076711
C      2.724726    0.097592    0.692220
C      2.231797    0.959276   -0.296855
C      0.995164    0.704673   -0.897298
C      0.238769   -0.416099   -0.515611
C     -1.107901   -0.679447   -1.147262
C     -2.278279   -0.061182   -0.354756
C     -2.182434    1.440522   -0.330918
O     -2.676006    2.117830   -1.270683
O     -1.505847    2.087479    0.696934
N     -2.323746   -0.590680    1.009826
O      3.955266    0.341329    1.297855
H      0.168392   -2.142196    0.789007
H      2.350220   -1.686617    1.841111
H      2.804680    1.826565   -0.599405
H      0.625265    1.382742   -1.656441
H     -1.120090   -0.285040   -2.187507
H     -1.266833   -1.776875   -1.232840
H     -3.223950   -0.338789   -0.874684
H     -3.172286   -0.204021    1.484653
H     -2.471136   -1.625030    0.956279
H      4.522220    1.141190    1.041593
