25

C      0.178817   -0.933239    0.263358
C      1.488792   -1.361419   -0.430139
C      2.734022   -0.630325    0.103680
N      2.713747    0.800570   -0.202034
C     -0.628593    0.066076   -0.584254
C     -1.821242    0.673015    0.187639
C     -2.444818    1.774546   -0.627890
O     -3.066254    1.508862   -1.691095
O     -2.317081    3.096828   -0.221371
N     -2.828659   -0.343567    0.521935
H      0.390450   -0.505868    1.267995
H     -0.441500   -1.842413    0.417386
H      1.640927   -2.447401   -0.244755
H      1.419275   -1.237881   -1.533391
H      3.634616   -1.087728   -0.362923
H      2.817860   -0.778777    1.203255
H      3.642235    1.213162    0.044692
H      2.539738    0.953168   -1.221935
H      1.980272    1.280899    0.366861
H      0.037470    0.893135   -0.909459
H     -0.994346   -0.445263   -1.502218
H     -1.440077    1.122966    1.132403
H     -3.672400    0.114615    0.937997
H     -3.115631   -0.877244   -0.331062
H     -2.447622   -1.006718    1.234060
