25

C      0.075904    0.693405   -0.547140
C      1.444479    1.041061    0.059965
C      2.431016   -0.137133    0.016799
N      3.758088    0.278027    0.470599
C     -0.743861   -0.256613    0.344577
C     -2.148961   -0.531617   -0.234003
C     -2.996727    0.714295   -0.214487
O     -3.417855    1.209764   -1.292810
O     -3.318227    1.325271    0.991777
N     -2.814245   -1.600087    0.520790
H     -0.484954    1.643739   -0.679079
H      0.213894    0.243008   -1.554501
H      1.315886    1.387917    1.108608
H      1.873453    1.885606   -0.522447
H      2.505404   -0.525589   -1.023261
H      2.068530   -0.959128    0.670829
H      3.706082    0.636844    1.451762
H      4.137215    1.022221   -0.159060
H      4.401693   -0.545651    0.445135
H     -0.834967    0.170372    1.367801
H     -0.205710   -1.224379    0.427428
H     -2.033102   -0.871871   -1.288949
H     -2.901136   -1.340253    1.530788
H     -3.767950   -1.773040    0.126579
H     -2.263951   -2.486170    0.441712
