20

C      0.556611   -0.484299   -1.230966
C      1.297939    0.511320   -0.382340
O      1.315029    1.687905   -0.713279
C      2.008658    0.085262    0.872029
C      3.488285    0.138830    0.668976
O      4.094922   -0.845348    0.170017
O      4.192809    1.293309    0.985998
C     -0.921089   -0.318546   -1.045945
O     -1.599481    0.224064   -1.959181
C     -1.570459   -0.841603    0.175257
C     -2.713010   -0.387644    0.714550
C     -3.430277    0.839781    0.321787
O     -2.836241    1.797708   -0.239279
O     -4.770435    0.977082    0.658145
H      0.831344   -0.333285   -2.297637
H      0.848047   -1.522572   -0.962637
H      1.718878    0.758165    1.707272
H      1.713629   -0.947179    1.158940
H     -1.095100   -1.687494    0.657283
H     -3.130059   -0.945458    1.544079
