15

C     -1.296326    0.010106    0.324144
C      0.065097    0.066111   -0.386480
C      1.120731   -0.633767    0.428593
O      1.474019   -0.170817    1.546871
O      1.700274   -1.804576   -0.050336
N      0.457025    1.456129   -0.647806
O     -1.699422   -1.322580    0.483872
H     -1.228070    0.506508    1.318783
H     -2.052214    0.550769   -0.288521
H     -0.033220   -0.461670   -1.362262
H      2.408291   -2.291080    0.486511
H     -0.246700    1.910183   -1.274565
H      1.385795    1.478136   -1.129111
H      0.518993    1.998026    0.245286
H     -2.574271   -1.291478    0.951438
