18

C      0.510439    0.394716    0.106811
C      1.225453   -0.962164    0.153816
C      2.621633   -0.799644    0.666742
O      2.850762   -0.839411    1.904271
O      3.663602   -0.554511   -0.218622
C     -0.880102    0.311281   -0.561496
C     -1.423281    1.699335   -0.775218
O     -1.754797    2.413932    0.207964
O     -1.542395    2.207774   -2.062591
N     -1.822681   -0.483956    0.238148
H      1.141368    1.104843   -0.474467
H      0.410579    0.796732    1.139681
H      1.264664   -1.405926   -0.864443
H      0.679102   -1.662989    0.820049
H     -0.766112   -0.167514   -1.560561
H     -1.856165   -0.139103    1.225426
H     -1.540815   -1.490095    0.231575
H     -2.781256   -0.423299   -0.177084
