16

C     -1.236527    0.723295   -0.553952
C      0.260248    0.865769   -0.659302
C      0.782794   -0.477121   -0.170438
N     -0.202993   -1.019925    0.768782
C     -1.439555   -0.253046    0.592477
C      2.115901   -0.335553    0.501895
O      3.171420   -0.622721   -0.121639
O      2.197918    0.157491    1.798863
H     -1.639275    0.287621   -1.495192
H     -1.728538    1.700244   -0.355213
H      0.594801    1.695416    0.004191
H      0.577734    1.074864   -1.704205
H      0.882262   -1.160690   -1.047032
H     -0.386579   -2.022095    0.524604
H     -2.305034   -0.922654    0.387238
H     -1.644576    0.309106    1.528923
