16

C     -1.397043   -0.681638    0.144099
C     -0.297227    0.166495   -0.533735
C      1.119645   -0.360311   -0.180554
C      1.441692   -0.284835    1.284711
O      1.196177   -1.262329    2.039598
O      1.993639    0.873182    1.817966
C     -0.420851    1.618876   -0.128350
O     -0.863819    1.940738    1.007131
O      0.023734    2.616721   -0.988019
O     -0.475279    0.102042   -1.929590
H     -1.296574   -1.749851   -0.144567
H     -2.401273   -0.328193   -0.174572
H     -1.338191   -0.614653    1.251126
H      1.221114   -1.416360   -0.514822
H      1.880130    0.227064   -0.740277
H     -0.385873   -0.846949   -2.210144
