18

C     -1.474328   -0.349256    0.697471
C     -0.457237   -1.244767    0.019672
C      0.549282   -0.287863   -0.605023
N     -0.172233    0.962415   -0.876219
C     -1.298634    1.027370    0.062871
C      1.726198   -0.059765    0.313268
O      1.571125    0.525429    1.419377
O      2.987928   -0.513978   -0.057539
H     -2.506250   -0.734834    0.545973
H     -1.263591   -0.295328    1.788362
H      0.007458   -1.957780    0.736633
H     -0.959153   -1.825875   -0.785540
H      0.929486   -0.722042   -1.558072
H     -0.544583    0.935238   -1.855222
H      0.442433    1.805556   -0.780986
H     -2.230342    1.327830   -0.467558
H     -1.095980    1.783359    0.854861
H      3.788422   -0.375711    0.547671
