24

C      1.294898    0.639514    0.920606
C      2.619823    0.768617    0.492929
C      3.145050   -0.121264   -0.449638
C      2.337245   -1.143250   -0.966600
C      1.012047   -1.274546   -0.540431
C      0.483850   -0.388926    0.413431
C     -0.953196   -0.508233    0.852669
C     -1.865979    0.432444    0.046845
C     -3.272111    0.392986    0.595116
O     -3.967726   -0.650956    0.478485
O     -3.808237    1.495542    1.255145
N     -1.850544    0.075063   -1.374637
O      4.466683    0.019290   -0.866740
H      0.900061    1.341024    1.645186
H      3.238099    1.562614    0.892100
H      2.734022   -1.833672   -1.699968
H      0.397700   -2.064239   -0.955011
H     -1.023867   -0.255715    1.934106
H     -1.299579   -1.560142    0.744218
H     -1.474266    1.468931    0.148407
H     -3.274991    2.347455    1.380627
H     -2.255928   -0.881237   -1.502052
H     -2.459311    0.747356   -1.896274
H      4.876258   -0.608655   -1.548519
