20

C     -0.656805    1.285304   -0.881895
C     -0.638350    0.084966    0.090223
C     -0.884781   -1.207059   -0.723349
C     -1.773597    0.258688    1.081677
O     -1.816043    1.233213    1.817487
C      0.720032    0.040219    0.869966
C      1.925827   -0.159027   -0.018810
O      2.302493   -1.317803   -0.342728
O      2.611994    0.949463   -0.505922
O      0.699549   -0.908183    1.911630
H      0.105384    1.161418   -1.680469
H     -0.445839    2.234622   -0.343652
H     -1.651121    1.377976   -1.370937
H     -0.087445   -1.364242   -1.479511
H     -0.933035   -2.099060   -0.064758
H     -1.852450   -1.142245   -1.267230
H     -2.564421   -0.482643    1.152255
H      0.856876    1.030372    1.358455
H      3.415343    0.837965   -1.112787
H      0.666389   -1.813942    1.510356
