25

C      0.959097   -1.020054    1.236034
C      2.260089   -0.775366    1.686025
C      3.173186   -0.102499    0.867711
C      2.779027    0.327986   -0.406441
C      1.478552    0.084866   -0.858628
C      0.560524   -0.596430   -0.042750
C     -0.848539   -0.835158   -0.522673
C     -1.727753    0.424695   -0.375652
C     -3.059802    0.196591   -1.038633
O     -3.878357   -0.631853   -0.555580
O     -3.381253    0.889918   -2.201418
N     -1.916790    0.788876    1.035381
O      4.465988    0.134399    1.329208
H      0.262059   -1.535062    1.885447
H      2.558281   -1.106619    2.672625
H      3.478116    0.852359   -1.045377
H      1.185676    0.428178   -1.843205
H     -1.305846   -1.684230    0.032347
H     -0.811579   -1.136481   -1.593289
H     -1.226819    1.271118   -0.898378
H     -4.270230    0.743592   -2.664536
H     -2.299695   -0.018905    1.579184
H     -2.578679    1.595926    1.108482
H     -1.005657    1.084619    1.454029
H      5.150404    0.619536    0.760787
