18

C     -0.625943    0.803708   -1.258275
C     -0.397630   -0.437213   -0.377558
C     -1.636455   -0.695709    0.493691
C      0.895261   -0.363637    0.491276
C      0.923655    0.833876    1.406698
O      1.340685    1.949534    0.995930
O      0.455942    0.718600    2.709928
N      2.114427   -0.412228   -0.323026
H     -0.756971    1.715890   -0.639380
H      0.217690    0.955214   -1.961220
H     -1.542675    0.667814   -1.871071
H     -0.298893   -1.311841   -1.058360
H     -2.529368   -0.854457   -0.148145
H     -1.492395   -1.608799    1.109674
H     -1.834004    0.165526    1.166757
H      0.912034   -1.266325    1.142208
H      2.160663    0.412891   -0.961999
H      2.093976   -1.272844   -0.917128
