15

C      0.137536   -0.353465   -0.697287
C     -1.267265   -0.781530   -0.253566
C     -2.061951    0.377458    0.265358
O     -2.203973    0.545137    1.505193
O     -2.618520    1.291005   -0.620831
C      1.021247    0.059670    0.485963
N      2.368468    0.372360    0.020125
H      0.616889   -1.210971   -1.218215
H      0.063005    0.485453   -1.424031
H     -1.803251   -1.212256   -1.126308
H     -1.197849   -1.576863    0.520675
H      1.075323   -0.777857    1.215874
H      0.587985    0.947398    0.998417
H      2.956762    0.574560    0.860728
H      2.325594    1.259900   -0.532095
