26

C      0.358551   -0.049717   -0.163558
C      1.608669    0.186540    0.692748
C      2.871718   -0.305971   -0.026174
N      4.061951   -0.077722    0.792504
C     -0.906109    0.431516    0.563917
C     -2.169738    0.343428   -0.321101
C     -3.321552    1.044244    0.358145
O     -3.826125    2.070699   -0.168824
O     -3.837131    0.578630    1.565680
N     -2.529350   -1.049260   -0.623220
H      0.273794   -1.136163   -0.380014
H      0.464733    0.498655   -1.125383
H      1.710404    1.273224    0.906650
H      1.501991   -0.354959    1.658403
H      2.777636   -1.393741   -0.241693
H      2.983144    0.232037   -0.993994
H      3.981683   -0.598296    1.696178
H      4.177313    0.944517    0.981672
H      4.903241   -0.423271    0.276675
H     -0.757423    1.492939    0.864529
H     -1.046954   -0.166737    1.490798
H     -1.962915    0.871973   -1.280230
H     -3.457085   -0.239562    2.025176
H     -2.573095   -1.623553    0.249765
H     -1.827432   -1.467177   -1.274904
H     -3.459918   -1.082273   -1.100531
