12

C     -1.029642   -0.690226    0.002815
C      0.014066    0.401342   -0.261980
C      1.268898   -0.199231   -0.826612
O      1.601262    0.033830   -2.018671
O      2.061448   -1.031543   -0.044843
N      0.325843    1.143561    0.960807
H     -0.651720   -1.426458    0.744510
H     -1.271820   -1.223393   -0.941500
H     -1.963597   -0.234942    0.395324
H     -0.409224    1.112188   -1.006994
H      0.592401    0.473420    1.719320
H     -0.537915    1.641452    1.277823
