23

C     -1.927200   -1.455188    1.011392
C     -1.193180   -0.210957    0.494421
C     -2.077178    0.530257   -0.520101
C      0.172295   -0.620041   -0.112585
C      1.076794    0.569287   -0.517416
C      1.360314    1.480816    0.653677
O      1.001654    2.686927    0.605014
O      2.014066    1.013488    1.791657
N      2.335977    0.081864   -1.093360
H     -2.890059   -1.166207    1.484509
H     -1.312751   -1.973286    1.778417
H     -2.134066   -2.162348    0.179295
H     -1.024294    0.457980    1.366249
H     -3.084134    0.717170   -0.089437
H     -2.192860   -0.065947   -1.450560
H     -1.640899    1.518692   -0.771220
H     -0.007243   -1.254313   -1.008914
H      0.719791   -1.250964    0.621597
H      0.554281    1.155787   -1.305196
H      2.318785    0.051592    1.873217
H      2.137079   -0.478329   -1.954125
H      2.940221    0.892038   -1.364180
H      2.852608   -0.518315   -0.410070
