18

C      2.051546   -0.724870    0.539667
C      1.208119   -0.133728   -0.370048
N      1.759064    1.004709   -0.824813
C      2.943954    1.063617   -0.181491
N      3.157272    0.029212    0.659586
C     -0.157489   -0.618679   -0.753528
C     -1.217463   -0.157170    0.260031
C     -2.557106   -0.757918   -0.074960
O     -3.135992   -1.512421    0.750420
O     -3.164587   -0.483475   -1.294693
N     -1.300955    1.305491    0.287411
H      1.871948   -1.640888    1.086867
H      3.653539    1.867915   -0.321644
H     -0.407705   -0.241885   -1.769496
H     -0.142457   -1.729964   -0.798657
H     -0.911594   -0.511656    1.270822
H     -1.654051    1.654001   -0.634070
H     -1.996042    1.587708    1.016757
