22

C      1.039110    0.732268   -0.923469
C      2.223624    1.247809   -0.388520
C      2.816283    0.636697    0.720567
C      2.224199   -0.492052    1.295174
C      1.039647   -1.010215    0.762781
C      0.436119   -0.400461   -0.350425
C     -0.850432   -0.951067   -0.919303
C     -2.122850   -0.302980   -0.325257
C     -2.201995    1.167606   -0.636561
O     -1.729374    2.022495    0.159283
O     -2.753517    1.587678   -1.840386
N     -2.249495   -0.540603    1.116424
O      3.992933    1.150702    1.251307
H      0.590894    1.216350   -1.782304
H      2.680246    2.121776   -0.835349
H      2.681057   -0.966864    2.154136
H      0.590609   -1.883261    1.219962
H     -0.891649   -2.049597   -0.750810
H     -0.854505   -0.811769   -2.023033
H     -2.995070   -0.785105   -0.819604
H     -1.439278   -0.117783    1.623928
H     -2.226556   -1.571625    1.291460
