20

C      0.511845    0.854519    0.383364
C     -0.551668   -0.248837    0.207869
C     -1.830576    0.301364   -0.464607
C     -2.917062   -0.740681   -0.494374
O     -2.798943   -1.747045   -1.175806
O     -1.549485    0.737316   -1.770092
O     -0.028856   -1.343836   -0.506411
C      1.698927    0.346677    1.156033
O      1.650676    0.343262    2.415378
C      2.896531   -0.181041    0.472050
O      2.952137   -0.198314   -0.785939
O      3.979694   -0.666445    1.201484
H      0.068570    1.709241    0.939871
H      0.833255    1.243543   -0.606950
H     -0.834181   -0.609200    1.222552
H     -2.197813    1.160403    0.144511
H     -3.823196   -0.591446    0.083767
H     -2.306232    1.317079   -2.048510
H      0.265019   -1.013561   -1.395184
H      3.981360   -0.672999    2.214281
