23

C      2.517635   -1.224820    0.628846
C      1.956398    0.183239    0.829868
C      0.810283    0.431304   -0.121118
O      1.044817    0.646421   -1.342197
N     -0.543960    0.373830    0.351940
C     -1.688995    0.550666   -0.546050
C     -2.971890    0.776929    0.257151
C     -1.843643   -0.657721   -1.423180
O     -2.059208   -0.518016   -2.656843
O     -1.780411   -1.933537   -0.869886
N      3.017032    1.178791    0.657541
H      3.344481   -1.407764    1.347661
H      1.723494   -1.981540    0.806734
H      2.908124   -1.348178   -0.404307
H      1.585608    0.253765    1.876059
H     -0.711477    0.182380    1.366243
H     -1.519593    1.452482   -1.176131
H     -2.860734    1.676768    0.898912
H     -3.830016    0.940697   -0.429600
H     -3.190115   -0.099744    0.904722
H     -1.892581   -2.757025   -1.448951
H      2.612422    2.130126    0.818992
H      3.372329    1.150946   -0.326406
