11

C      1.451835    0.688877   -0.024319
C      1.528382   -0.648840    0.307984
O      0.323884   -1.172500    0.316549
C     -0.541520   -0.235915    0.003977
C      0.114505    0.958624   -0.221443
C     -1.988490   -0.457609   -0.084661
O     -2.761898    0.487922   -0.390359
O     -2.512325   -1.718340    0.169832
H      2.275127    1.384995   -0.112293
H      2.434392   -1.196537    0.530135
H     -0.323892    1.909323   -0.495401
