19

C     -0.271735    0.611225    1.132494
C      1.240646    0.577115    0.856266
C      1.777539   -0.824717    0.854046
O      1.971058   -1.421548    1.946659
N      2.043811   -1.498251   -0.376232
C     -1.121219   -0.008869    0.003059
C     -0.988071    0.762830   -1.285554
O     -1.280157    1.987437   -1.331672
O     -0.552714    0.119235   -2.437015
N     -2.523824   -0.072612    0.419086
H     -0.477107    0.070588    2.082980
H     -0.580025    1.668475    1.288507
H      1.760142    1.152496    1.652741
H      1.470728    1.079588   -0.107415
H      1.877553   -1.024622   -1.291604
H      2.404932   -2.477881   -0.372558
H     -0.772128   -1.050471   -0.169462
H     -3.075986   -0.547417   -0.332384
H     -2.903443    0.897397    0.521325
