24

C     -1.938659    0.452215   -1.160172
C     -1.463829   -0.771843   -0.359620
C     -0.576650   -0.426325    0.872040
C      0.690144    0.437591    0.606790
C      1.638072   -0.119799   -0.489157
C      2.891012    0.708705   -0.597229
O      3.123474    1.372505   -1.641894
O      3.792259    0.758223    0.459647
O      1.977226   -1.462664   -0.247312
O      0.301704    1.751201    0.287428
O     -0.193709   -1.614686    1.518515
O     -0.795952   -1.673092   -1.204792
O     -2.604901    1.354363   -0.320216
H     -1.080412    0.950235   -1.660508
H     -2.638675    0.110403   -1.955104
H     -2.377770   -1.272334    0.040343
H     -1.206928    0.162261    1.580849
H      1.254884    0.456759    1.570912
H      1.119018   -0.071229   -1.469280
H      2.415674   -1.508983    0.642792
H      1.023559    2.358630    0.596942
H     -0.999324   -1.971473    1.976885
H     -1.485694   -2.103464   -1.775041
H     -2.864524    2.122801   -0.891988
