19

C      0.189536    1.041383    0.428906
C     -1.249115    0.654383    0.029468
C     -1.514249   -0.845568    0.269532
C     -0.408819   -1.692509   -0.307064
O     -0.631484   -2.899671   -0.589684
C      0.941509   -1.137731   -0.505167
C      1.232776    0.141323   -0.203410
C      2.608534    0.660149   -0.387118
O      3.500352   -0.047723   -0.927426
O      2.934112    1.942541    0.038698
O     -1.688168   -1.117466    1.638556
O     -1.461856    0.948203   -1.328506
H      0.299122    0.993258    1.533162
H      0.365420    2.097150    0.129220
H     -1.966970    1.240460    0.650187
H     -2.462864   -1.113235   -0.245453
H      1.700879   -1.791511   -0.917522
H     -0.810896   -1.005513    2.089362
H     -1.577820    1.932077   -1.395739
