45

C     -3.942662   -1.023967   -1.992047
C     -3.271851   -0.733123   -0.640619
C     -4.226249    0.062859    0.309448
C     -3.751597    1.525224    0.460701
C     -2.263973    1.583274    0.889085
C     -1.465602    0.388191    0.318826
O     -2.057037   -0.040613   -0.895479
O     -0.137188    0.809320    0.072555
C      0.704141   -0.309258   -0.127635
C      2.112487    0.176942   -0.496427
C      3.073667   -1.011393   -0.788189
C      4.526933   -0.541010   -0.650064
C      4.778290    0.017794    0.771349
C      3.476881    0.546166    1.429963
O      2.593076    1.109068    0.473172
O      2.829143   -0.465075    2.162629
O      5.716663    1.061660    0.706666
O      5.392334   -1.616370   -0.909094
O      2.832990   -1.554777   -2.064000
O     -2.160767    1.575745    2.290629
O     -3.905090    2.201374   -0.762362
O     -4.246991   -0.560678    1.569387
O     -5.064575   -1.850111   -1.828029
H     -3.212181   -1.507855   -2.680330
H     -4.263567   -0.070871   -2.464113
H     -3.028070   -1.721841   -0.186350
H     -5.264716    0.069249   -0.098873
H     -4.372953    2.037289    1.233150
H     -1.821738    2.530624    0.496126
H     -1.474326   -0.435922    1.078460
H      0.324090   -0.944944   -0.960249
H      0.755097   -0.925368    0.796880
H      2.007249    0.754011   -1.441624
H      2.902116   -1.821860   -0.045175
H      4.697992    0.267185   -1.401711
H      5.183048   -0.794367    1.421414
H      3.749322    1.363951    2.137051
H      3.356722   -0.605762    2.991978
H      6.606881    0.641960    0.575551
H      6.286046   -1.226210   -1.094883
H      3.054247   -0.860314   -2.738363
H     -2.399066    2.487822    2.602706
H     -4.875513    2.379711   -0.874288
H     -5.032400   -0.200388    2.058747
H     -4.721304   -2.767342   -1.665197
