18

C      0.834216   -0.818374    0.510008
C      0.233823    0.541945    0.085397
C     -1.314754    0.535278    0.071128
C     -1.881447   -0.493735   -0.872848
O     -2.160924   -0.177192   -2.059173
O     -2.075843   -1.803333   -0.449821
O     -1.794802    0.304446    1.371003
C      0.778885    0.998537   -1.246246
O      1.094564    2.205751   -1.415795
O      0.895045    0.107929   -2.307539
C      2.310031   -0.715310    0.751494
O      2.742756   -0.274868    1.848884
O      3.206168   -1.067347   -0.249895
H      0.646766   -1.589695   -0.267631
H      0.351080   -1.168293    1.447841
H      0.540313    1.292821    0.849650
H     -1.655603    1.545524   -0.259788
H     -2.750272    0.575916    1.378717
