23

C      2.311336    1.529280   -0.647727
C      2.767328    0.654086   -1.658641
C      2.182194   -0.615279   -1.820025
C      1.150398   -0.972067   -0.952792
C      0.709761   -0.123098    0.030172
C      1.266921    1.142937    0.212034
C     -0.311677   -0.775177    0.692981
C     -0.449613   -2.004821    0.055548
N      0.452288   -2.121055   -0.945883
C     -1.164294   -0.244246    1.805063
C     -2.240519    0.646182    1.255206
O     -2.056513    1.892583    1.230408
C     -3.488370    0.091384    0.707109
O     -3.689934   -1.151704    0.701796
O     -4.456557    0.941986    0.188148
H      2.767531    2.504060   -0.534413
H      3.570536    0.962708   -2.314970
H      2.521503   -1.290800   -2.594599
H      0.911263    1.809238    0.987008
H     -1.176107   -2.767175    0.305027
H      0.570370   -2.935100   -1.589186
H     -1.617858   -1.087040    2.369664
H     -0.529988    0.325195    2.518071
