14

C      1.960019   -0.197082   -0.105057
C      0.629571    0.303871    0.375619
O      0.597452    1.082041    1.317803
C     -0.661752   -0.136569   -0.282004
C     -1.513267   -0.893731    0.696409
O     -2.135052   -0.287414    1.609272
O     -1.585954   -2.279250    0.623542
N     -1.398874    1.009317   -0.819949
H      2.476381   -0.728427    0.721633
H      1.848606   -0.896454   -0.959560
H      2.583967    0.661832   -0.429562
H     -0.435505   -0.821757   -1.128173
H     -0.810394    1.466147   -1.554658
H     -1.555199    1.717476   -0.065316
