20

C      1.080133   -0.606822    1.177910
C      0.661695    0.576112    0.288989
C      1.796475    0.936453   -0.681507
C     -0.689504    0.351037   -0.454848
C     -1.841686    0.331225    0.519536
O     -2.369997    1.415310    0.885739
O     -2.298719   -0.872039    1.050862
N     -0.692396   -0.860970   -1.288999
H      0.267722   -0.876610    1.883707
H      1.343612   -1.495264    0.566564
H      1.970985   -0.327383    1.780064
H      0.529936    1.457079    0.957372
H      2.075134    0.069199   -1.315814
H      1.494549    1.782110   -1.335289
H      2.696349    1.250683   -0.110559
H     -0.854687    1.225210   -1.125971
H     -3.060738   -0.889530    1.717968
H     -1.604506   -0.930645   -1.796852
H     -0.568849   -1.723349   -0.711895
H      0.064492   -0.811806   -2.006978
