14

C     -0.891426    0.979427   -0.692286
C     -0.237739    0.194676    0.450251
C      1.260567    0.248976    0.324545
O      1.944982    0.851330    1.194532
O      1.893574   -0.356219   -0.757643
N     -0.701762   -1.197025    0.456826
H     -0.635443    0.529540   -1.675668
H     -0.545639    2.035352   -0.677915
H     -1.995785    0.973226   -0.573899
H     -0.536618    0.674352    1.410236
H      2.901287   -0.323070   -0.855121
H     -0.248859   -1.717260    1.243538
H     -1.737656   -1.223367    0.599948
H     -0.469484   -1.669937   -0.447344
