21

C     -0.094445    0.319531    0.022056
C     -1.147512   -0.765474   -0.241813
C     -2.350471   -0.550694    0.626104
O     -2.433544   -1.136677    1.738375
N     -3.382232    0.348597    0.220838
C      1.138149    0.173704   -0.896607
C      1.882448   -1.113083   -0.624706
O      1.983098   -1.978205   -1.534203
O      2.461967   -1.364796    0.616964
N      2.037399    1.323089   -0.739494
H      0.217304    0.285946    1.089014
H     -0.558325    1.314209   -0.160816
H     -0.721576   -1.770463   -0.031755
H     -1.457387   -0.740443   -1.308999
H     -3.316105    0.860295   -0.686946
H     -4.212988    0.507931    0.832916
H      0.780415    0.159540   -1.952149
H      2.404636   -0.697975    1.376461
H      2.345840    1.422736    0.254939
H      1.545145    2.198816   -1.031073
H      2.878183    1.203417   -1.350666
