20

C     -3.252131   -0.260476   -0.613343
C     -2.634273    0.898374   -0.395609
C     -1.234937    0.580013   -0.170990
C     -0.149785    1.423755    0.102722
C      1.093512    0.795701    0.270843
C      2.267076    1.349695    0.534147
C      3.252134    0.260476    0.613342
C      2.634276   -0.898373    0.395604
C      1.234941   -0.580013    0.170969
C      0.149787   -1.423753   -0.102744
C     -1.093509   -0.795699   -0.270861
C     -2.267077   -1.349696   -0.534139
H     -4.308885   -0.373163   -0.815232
H     -3.095426    1.877059   -0.389927
H     -0.267768    2.497266    0.179292
H      2.458505    2.406857    0.665278
H      4.308893    0.373165    0.815213
H      3.095425   -1.877059    0.389948
H      0.267747   -2.497271   -0.179245
H     -2.458505   -2.406858   -0.665268
