13

C     -1.411657   -0.186963    0.312217
C     -0.181114    0.132486   -0.540414
C      0.928054   -0.840493   -0.260554
O      1.440580   -1.499462   -1.204720
O      1.403772   -1.007871    1.037498
C      0.292813    1.535104   -0.288206
O      0.418756    2.341164   -1.247511
O      0.612176    1.949799    0.999872
H     -1.767977   -1.216701    0.094527
H     -2.233338    0.522309    0.074564
H     -1.177483   -0.111936    1.396211
H     -0.479488    0.040453   -1.609361
H      2.154904   -1.657889    1.235878
