13

C     -1.705137   -0.569898    0.334650
C     -0.335370    0.050140    0.280673
C      0.736399   -0.736568    0.513651
C      2.129411   -0.278912    0.685339
O      2.397034    0.895196    1.053101
O      3.164987   -1.189105    0.520087
C     -0.242879    1.500358   -0.002653
O      0.701092    1.964987   -0.695010
O     -1.249704    2.355261    0.429261
H     -2.028224   -0.662673    1.392739
H     -2.444918    0.051715   -0.213268
H     -1.701369   -1.577399   -0.134459
H      0.578679   -1.803101    0.627232
