20

C      0.371021    1.679583   -0.525918
C     -0.183026    0.242632   -0.644994
C      0.945045   -0.786550   -0.360970
C      1.537329   -0.683444    1.015766
O      1.060272   -1.363126    1.963490
O      2.610233    0.171817    1.247303
C     -1.383832    0.069061    0.328617
C     -2.048794   -1.269680    0.196229
O     -2.865416   -1.482162   -0.738388
O     -1.748845   -2.289156    1.090792
O     -0.612691    0.034449   -1.971428
H      0.677033    1.905707    0.517402
H     -0.402636    2.420996   -0.819880
H      1.248363    1.813395   -1.194439
H      0.561709   -1.818710   -0.513992
H      1.761480   -0.647360   -1.102981
H      3.016410    0.257241    2.171303
H     -2.144093    0.855694    0.127571
H     -1.055398    0.211500    1.380339
H     -1.344162    0.678113   -2.165824
