41

C     -4.325721    1.390769    1.465069
C     -4.927323    1.258361    0.065805
C     -4.229812    0.180273   -0.777088
C     -2.839298    0.621060   -1.258621
C     -2.184790   -0.460677   -2.078180
C     -1.555599   -1.536155   -1.567641
C     -1.357431   -1.809733   -0.094589
C      0.114304   -1.653932    0.308815
C      0.565840   -0.183540    0.285916
C      1.998587    0.004994    0.809600
C      3.060983   -0.470040   -0.196869
C      4.494210   -0.285263    0.327418
C      4.939655    1.183079    0.329148
C      6.380597    1.290370    0.717129
O      6.705054    1.381666    1.930368
O      7.368915    1.239659   -0.257716
H     -4.936269    2.099809    2.062880
H     -4.321435    0.407215    1.981274
H     -3.290116    1.785248    1.415025
H     -4.885185    2.240232   -0.453905
H     -5.998408    0.981200    0.173847
H     -4.167178   -0.764937   -0.196605
H     -4.861642   -0.024531   -1.669307
H     -2.182344    0.909332   -0.413796
H     -2.955696    1.520520   -1.901185
H     -2.211696   -0.353196   -3.158829
H     -1.106897   -2.237921   -2.265032
H     -1.663427   -2.860473    0.095802
H     -1.992761   -1.174324    0.554646
H      0.236808   -2.054510    1.338796
H      0.744251   -2.266149   -0.370865
H      0.487114    0.227517   -0.744049
H     -0.115553    0.406522    0.937235
H      2.141355    1.088306    1.005568
H      2.121101   -0.531186    1.776107
H      2.940378    0.069424   -1.161850
H      2.916606   -1.552295   -0.396788
H      4.578989   -0.709119    1.352469
H      5.177585   -0.864045   -0.332973
H      4.805564    1.620963   -0.683589
H      4.330684    1.772247    1.046561
