29

C     -2.129056   -1.098980   -0.957068
C     -1.580732   -0.337316    0.272058
C     -2.458918    0.908731    0.518194
C     -0.089389    0.101501    0.074133
C      0.886009   -1.113968   -0.078655
C      2.375796   -0.767682    0.170363
C      2.606238   -0.312561    1.589716
O      2.914395    0.842533    1.839121
O      2.819453    0.199341   -0.747597
O      0.744755   -1.737501   -1.332671
O      0.022769    0.951031   -1.062778
C      0.405100    2.260549   -0.695058
O     -1.652260   -1.166484    1.410207
H     -1.680524   -2.110960   -1.026569
H     -1.928224   -0.541683   -1.896550
H     -3.227813   -1.240855   -0.869099
H     -2.076602    1.488988    1.385106
H     -3.505876    0.611788    0.743135
H     -2.478210    1.564915   -0.377912
H      0.192924    0.614436    1.026363
H      0.615812   -1.873791    0.686528
H      2.962877   -1.704435    0.024953
H      2.470581   -1.015291    2.405374
H      3.811954    0.164586   -0.746214
H      1.043269   -1.099475   -2.031205
H      0.492396    2.875056   -1.614148
H     -0.356831    2.735614   -0.041249
H      1.393531    2.267505   -0.188119
H     -2.593422   -1.465590    1.519643
