25

C      7.430749    1.023632    0.503315
C      6.374866    0.696741    0.983867
C      5.138130    0.313822    1.546524
C      4.081658   -0.013142    2.026277
C      2.823212   -0.402450    2.596545
C      1.751738   -0.426340    1.855638
C      0.680919   -0.449132    1.110879
C      0.771683   -0.084580   -0.315612
C     -0.258542   -0.076637   -1.173377
C     -1.649595   -0.437216   -0.827867
C     -2.614813   -0.385584   -1.750692
C     -4.031969   -0.752536   -1.425118
C     -4.661513    0.295792   -0.563756
O     -4.718820    0.137423    0.685090
O     -5.149923    1.464148   -1.140149
H      8.357895    1.310625    0.081316
H      2.764498   -0.676724    3.640931
H     -0.250488   -0.734379    1.574886
H      1.743982    0.200823   -0.703134
H     -0.049037    0.216857   -2.195986
H     -1.910205   -0.749071    0.173251
H     -2.381979   -0.085026   -2.765980
H     -4.612331   -0.834432   -2.368677
H     -4.063988   -1.742847   -0.920288
H     -5.566129    2.190232   -0.569382
