33

C     -2.493098   -1.251066    0.028656
C     -3.667747   -1.914297    0.394258
C     -4.866840   -1.204527    0.532776
C     -4.889402    0.175114    0.298071
C     -3.711386    0.841143   -0.069456
C     -2.500204    0.140199   -0.194871
C     -1.283960    0.888867   -0.596740
C     -0.035823    0.459946   -0.361451
C      1.153912    1.237053   -0.767026
O      1.023011    2.360104   -1.326590
C      2.511164    0.701972   -0.526405
C      3.481943    1.462583    0.169026
C      4.772662    0.951260    0.343021
C      5.109442   -0.314868   -0.146791
C      4.152886   -1.073941   -0.822089
C      2.859552   -0.572836   -1.021555
O      1.926299   -1.332415   -1.728249
O      6.392059   -0.827983    0.033445
O      3.192341    2.713814    0.718294
O     -6.085439    0.878360    0.430940
O     -6.039226   -1.863328    0.898798
H     -1.594152   -1.837640   -0.099878
H     -3.646286   -2.983582    0.562647
H     -3.740663    1.909414   -0.248623
H     -1.427331    1.853051   -1.070977
H      0.132224   -0.467498    0.168524
H      5.512483    1.537414    0.873956
H      4.419220   -2.052148   -1.202651
H      2.154893   -2.248184   -2.096921
H      7.109485   -0.302555    0.519389
H      2.266155    3.120623    0.711833
H     -6.134340    1.877286    0.267698
H     -6.053835   -2.861334    1.073961
