19

C     -1.749082   -1.228747    0.651712
C     -1.188148    0.203639    0.578724
C     -1.501874    0.891872   -0.727857
O     -1.768340    0.223572   -1.762559
O     -1.457512    2.280363   -0.811576
N      0.256907    0.270431    0.873090
C      1.086054   -0.565914   -0.007052
C      2.517024   -0.160024    0.129504
O      3.259749   -0.735128    0.969391
O      3.015855    0.886881   -0.639052
H     -1.357855   -1.861455   -0.172624
H     -1.478334   -1.694452    1.622915
H     -2.857132   -1.202907    0.575250
H     -1.714401    0.782697    1.369792
H     -1.225400    2.846479   -0.004210
H      0.408122   -0.041690    1.861840
H      0.983224   -1.639946    0.264747
H      0.791878   -0.441668   -1.070880
H      3.979265    1.185995   -0.546520
