13

C     -1.171980   -0.881305   -0.060645
C     -0.074829    0.171553   -0.231468
C     -0.464973    1.448801    0.458085
O     -0.521519    2.496637   -0.165741
C      1.233973   -0.327790    0.319694
O      1.329582   -0.644525    1.535810
O      2.352953   -0.442639   -0.501122
H     -1.344343   -1.104804    1.014654
H     -2.122283   -0.515863   -0.505776
H     -0.883091   -1.819953   -0.580459
H      0.039577    0.368040   -1.320675
H     -0.689742    1.447867    1.520461
H      2.316677   -0.196017   -1.482818
