20

C      2.164914    0.280227    0.698262
C      1.056767   -0.153142    0.083061
C     -0.291122    0.398261    0.385513
C     -1.401890   -0.385622    0.303452
C     -1.326469   -1.865464    0.208512
O     -0.361883   -2.502144    0.712775
O     -2.363963   -2.568372   -0.397034
N     -2.714008    0.199384    0.285653
C     -0.392323    1.845083    0.701710
O     -1.217320    2.258330    1.561080
O      0.460530    2.752344    0.078962
C      3.497021   -0.268142    0.401080
O      3.658966   -1.170605   -0.463231
H      2.100093    1.049670    1.457484
H      1.135049   -0.946599   -0.650962
H     -2.342674   -3.579507   -0.455659
H     -3.562073   -0.400102    0.394445
H     -2.872701    1.203020    0.047565
H      0.416576    3.740769    0.296239
H      4.356507    0.112612    0.936337
