42

C     -3.654896   -2.064532    1.977407
O     -4.176472   -0.916648    1.315354
C     -3.443548   -0.097989    0.440384
C     -2.095438   -0.359324    0.133578
C     -1.385059    0.475162   -0.740085
C     -2.037540    1.571927   -1.318142
C     -3.379688    1.847486   -1.024452
C     -4.093394    1.006591   -0.135318
O     -5.441370    1.208665    0.216660
C     -6.285672    2.257268   -0.244906
O     -3.985724    2.952953   -1.618566
C      0.036631    0.191162   -1.065290
C      0.459048    0.192986   -2.399143
O      1.727275   -0.031643   -2.708684
C      2.656766   -0.296933   -1.798258
C      2.326797   -0.377800   -0.422868
C      0.992222   -0.061913   -0.062202
O      0.655431    0.058895    1.146116
C      3.348900   -0.726311    0.510973
C      4.693017   -0.847025    0.066791
C      4.984557   -0.730869   -1.297785
C      3.969983   -0.483262   -2.221425
O      6.302196   -0.872516   -1.732124
O      5.782452   -1.102180    0.922538
C      5.752109   -1.158385    2.344559
O      3.058024   -1.003476    1.848845
H     -2.804516   -1.775420    2.630540
H     -3.326530   -2.819208    1.231877
H     -4.450423   -2.511753    2.607829
H     -1.596764   -1.219634    0.559345
H     -1.497016    2.226521   -1.991275
H     -6.402123    2.199996   -1.347526
H     -7.287741    2.139613    0.215851
H     -5.876818    3.243053    0.061182
H     -3.483840    3.560466   -2.255801
H     -0.247056    0.382557   -3.197537
H      4.207633   -0.409687   -3.275749
H      6.550482   -0.797029   -2.711769
H      5.169211   -2.040520    2.682341
H      5.330565   -0.218367    2.759098
H      6.789771   -1.269276    2.720373
H      2.158559   -1.323600    2.178305
