16

C     -2.286401   -0.357682   -0.125521
C     -1.739637    0.670152    0.642209
C     -0.354384    0.867462    0.686305
C      0.499896    0.038763   -0.086387
C     -0.068408   -1.003457   -0.850734
C     -1.452741   -1.197581   -0.861958
O      0.732155   -1.839909   -1.622377
C      1.962547    0.257690   -0.133861
O      2.431924    1.425261   -0.202605
O      2.830716   -0.830505   -0.145897
O      0.132831    1.868917    1.529452
H     -3.358184   -0.507859   -0.143825
H     -2.394537    1.305774    1.224878
H     -1.883474   -1.995342   -1.453812
H      3.833547   -0.695303   -0.193625
H      1.114151    1.993618    1.737756
