34

C     -3.459621    0.229214    1.104064
C     -4.784173    0.629016    1.306854
C     -5.810919    0.091242    0.520343
C     -5.507018   -0.853467   -0.463986
C     -4.183782   -1.256032   -0.668558
C     -3.144558   -0.704872    0.098464
C     -1.759557   -1.172936   -0.134659
C     -0.679610   -0.390171   -0.013915
C      0.719056   -0.788076   -0.233801
C      1.501299    0.274444   -0.041471
C      0.609784    1.384664    0.299081
O      0.968111    2.557554    0.582989
O     -0.709261    0.960984    0.309322
C      2.976461    0.329204   -0.170042
C      3.597090    1.473082   -0.701307
C      4.988868    1.533064   -0.820795
C      5.778409    0.452933   -0.406490
C      5.168894   -0.685664    0.128069
C      3.777265   -0.749283    0.247747
O      7.165899    0.501737   -0.520406
O      1.171394   -2.050872   -0.612752
O     -7.133570    0.483768    0.712722
H     -2.693310    0.629289    1.754046
H     -5.012447    1.349048    2.082428
H     -6.297384   -1.278062   -1.069904
H     -3.968757   -1.990956   -1.434953
H     -1.631803   -2.189924   -0.481026
H      3.006572    2.313234   -1.043350
H      5.452029    2.418175   -1.238031
H      5.774806   -1.520614    0.456481
H      3.331967   -1.631667    0.688393
H      7.637454    1.312889   -0.903241
H      0.536639   -2.825977   -0.751393
H     -7.386225    1.165033    1.419077
