17

C      1.529033   -1.465395    0.080837
C      0.221044   -1.413438   -0.401270
C     -0.513286   -0.215545   -0.355087
C      0.082765    0.942139    0.210457
C      1.408622    0.874363    0.683196
C      2.123426   -0.323699    0.614227
O      2.020341    1.994450    1.235871
N     -0.654440    2.165789    0.358567
C     -1.870495   -0.196870   -0.946538
O     -2.235967    0.772424   -1.662714
O     -2.746772   -1.263476   -0.758031
H      2.087247   -2.391429    0.030466
H     -0.207347   -2.306446   -0.839529
H      3.140783   -0.370344    0.981695
H     -0.182437    3.044097    0.668072
H     -1.692082    2.200249    0.260940
H     -2.510436   -2.046870   -0.161159
