44

C      4.099078    1.409851    1.852049
C      3.650561    1.127433    0.459116
O      3.760992    2.020627   -0.424177
O      3.072471   -0.111901    0.162330
C      2.519892   -0.452323   -1.110894
C      0.979011   -0.299223   -1.123059
C      0.623882    1.213505   -1.114917
C     -0.882249    1.495509   -1.150001
C     -1.575154    1.186043    0.207635
C     -2.198341   -0.224063    0.273749
C     -1.243498   -1.400332   -0.137907
C      0.283715   -1.089740    0.044066
C      0.917522   -2.455472    0.375991
C     -0.125954   -3.202679    1.197211
C     -1.405812   -2.566672    0.796571
O     -2.491827   -2.994885    1.159407
C     -1.602944   -1.940372   -1.548272
C     -2.566113    2.304351    0.339826
C     -3.506562    2.430631    1.276102
C     -2.190189    3.315115   -0.620851
O     -2.706305    4.459006   -0.724854
O     -1.145314    2.873313   -1.404258
H      4.311301    0.457902    2.382335
H      3.299412    1.957251    2.392867
H      5.022356    2.026636    1.838235
H      2.981885    0.151516   -1.922833
H      2.788650   -1.504907   -1.337100
H      0.653106   -0.717144   -2.097130
H      1.060191    1.710362   -0.222837
H      1.080656    1.688909   -2.010683
H     -1.356090    0.935304   -1.977085
H     -0.862338    1.314583    1.051308
H     -2.539574   -0.369876    1.322503
H     -3.119264   -0.244521   -0.350708
H      0.420230   -0.494683    0.974667
H      1.123942   -3.022235   -0.558523
H      1.860437   -2.346379    0.954324
H      0.042533   -3.050939    2.285128
H     -0.125179   -4.286400    0.951545
H     -2.637337   -2.348238   -1.553084
H     -0.916529   -2.760181   -1.850069
H     -1.565413   -1.164241   -2.331429
H     -3.664984    1.651555    2.009489
H     -4.124852    3.318007    1.320435
