33

C      4.849728    0.316335   -0.074220
C      3.470645    0.356975    0.577691
C      2.405365    0.849040   -0.412414
C      1.029659    1.057897    0.244908
C      0.399056   -0.208130    0.859645
C      0.230335   -1.393431   -0.111789
C     -0.675779   -1.098314   -1.317386
C     -2.084649   -0.791582   -0.894298
C     -2.600877    0.508718   -0.998037
C     -3.911187    0.750137   -0.576286
C     -4.669369   -0.303457   -0.066556
C     -4.092926   -1.574778    0.007930
O     -4.757626   -2.541283    0.464487
O     -2.842207   -1.770059   -0.400851
O     -4.464933    2.025572   -0.658889
H      5.151124    1.333089   -0.404974
H      5.596919   -0.053684    0.659133
H      4.842077   -0.367498   -0.949721
H      3.508842    1.034570    1.458222
H      3.220181   -0.666730    0.927934
H      2.729626    1.827130   -0.830878
H      2.321777    0.144104   -1.266404
H      1.130222    1.821462    1.046794
H      0.336997    1.487963   -0.507936
H      1.014072   -0.541298    1.722263
H     -0.594012    0.062816    1.278493
H      1.224413   -1.727474   -0.475646
H     -0.196003   -2.250518    0.454250
H     -0.698992   -1.999049   -1.967435
H     -0.250167   -0.276768   -1.931872
H     -1.998970    1.315817   -1.396139
H     -5.686986   -0.136694    0.265338
H     -3.936355    2.809123   -1.024339
