19

C     -1.761311   -0.834395    0.509466
C     -1.077684    0.257277   -0.340538
C      0.362303   -0.105892   -0.777630
C      1.350720   -0.160444    0.370547
C      2.241615    0.809371    0.268506
C      1.968117    1.526184   -0.946901
O      2.620825    2.505886   -1.391568
O      0.880170    0.956992   -1.584172
O      3.289041    1.046161    1.149892
O      1.396264   -1.139187    1.358698
O     -1.859790    0.529180   -1.476980
O     -1.390487   -0.728692    1.857824
H     -1.487786   -1.843066    0.133150
H     -2.868819   -0.744267    0.423112
H     -1.037022    1.195300    0.256477
H      0.384262   -1.057777   -1.351188
H      0.789123   -1.947838    1.321697
H     -1.906437   -0.305515   -2.013913
H     -1.893104    0.040725    2.233520
