15

C     -0.002981    1.105797   -0.207523
C      1.375803    1.176362   -0.430740
C      2.162176    0.025206   -0.333972
C      1.569659   -1.199146   -0.013475
C      0.191339   -1.274753    0.210619
C     -0.610023   -0.121368    0.115714
C     -2.068793   -0.194006    0.351501
O     -2.615018   -1.292866    0.641354
O     -2.853308    0.952530    0.255312
O      3.531772    0.097931   -0.556195
H     -0.591596    2.010977   -0.288140
H      1.832738    2.125965   -0.678917
H      2.176881   -2.092288    0.062045
H     -0.245671   -2.234229    0.457618
H     -3.852978    0.913889    0.414800
