20

C     -1.814147    0.132817   -0.535592
C     -0.587445    0.398791   -0.046805
C      0.513053    0.573009   -1.018531
C      1.603786   -0.209339   -1.025786
C      2.674097    0.002784   -2.031442
O      2.430551    0.641671   -3.090101
O      3.964245   -0.483525   -1.829511
O      1.708252   -1.246620   -0.096397
C     -0.326228    0.684692    1.387358
O      0.831774    0.537064    1.862137
O     -1.328291    1.206277    2.201373
C     -2.994146   -0.230979    0.269709
O     -4.145311   -0.037858   -0.203499
O     -2.855938   -0.861761    1.503145
H     -1.951350    0.112870   -1.611670
H      0.385117    1.331017   -1.782814
H      4.250395   -0.919874   -0.962836
H      2.457333   -1.925971   -0.120086
H     -1.146515    1.430339    3.172442
H     -3.669232   -1.135404    2.041499
