28

C     -3.306330    1.158819    0.360202
C     -2.844439    0.230658   -0.768760
C     -1.708781   -0.652504   -0.306426
N     -1.960334   -1.916115    0.157114
C     -0.971570   -2.744276    0.618511
C      0.364650   -2.313617    0.644707
C      0.621152   -1.025670    0.188557
C     -0.382094   -0.201987   -0.275097
N      0.103088    1.006067   -0.647188
C      1.431574    0.930250   -0.413670
C      2.382628    1.926073   -0.631323
C      3.723098    1.638427   -0.312654
C      4.082008    0.376270    0.212415
C      3.104941   -0.613355    0.425000
C      1.786799   -0.300591    0.098623
O     -3.916581   -0.539101   -1.255967
H     -3.644380    0.568496    1.238875
H     -2.475205    1.825370    0.674725
H     -4.148613    1.790279    0.006476
H     -2.489757    0.862276   -1.610736
H     -1.224394   -3.735610    0.969652
H      1.155433   -2.955225    1.011051
H     -0.423136    1.824864   -1.025170
H      2.100452    2.890954   -1.032304
H      4.485051    2.390568   -0.470390
H      5.116486    0.169378    0.453685
H      3.371000   -1.581847    0.828070
H     -4.332746   -1.008852   -0.485954
