28

C      4.244739    0.590708    0.499176
C      3.737008   -0.540966   -0.390237
C      2.330105   -0.925994   -0.034452
C      1.282830   -0.161039   -0.357100
C     -0.127589   -0.437176   -0.069975
C     -0.714855   -1.502094    0.607244
C     -2.109514   -1.500020    0.776410
C     -2.895055   -0.445292    0.259206
C     -2.285276    0.616572   -0.466842
C     -0.881599    0.597903   -0.583983
C      0.075746    1.534048   -1.183126
O     -0.194621    2.637005   -1.724707
O      1.371705    1.050851   -1.038805
C     -3.113153    1.729911   -1.053269
O     -4.272316   -0.479432    0.494466
O     -2.729112   -2.540652    1.466517
H      4.198751    0.290126    1.567826
H      3.637879    1.508668    0.350953
H      5.299648    0.820686    0.240080
H      3.792414   -0.239038   -1.458674
H      4.396790   -1.424126   -0.250871
H      2.170532   -1.868614    0.473133
H     -0.112271   -2.306007    1.008560
H     -2.567883    2.294305   -1.831820
H     -4.012374    1.317633   -1.555936
H     -3.423601    2.428064   -0.248202
H     -4.901800    0.265666    0.226898
H     -2.197128   -3.311699    1.853078
