20

C     -2.047210   -0.831517    0.520597
C     -0.993673   -0.360523   -0.452388
C      0.160043    0.140864    0.036848
C      1.198162    0.799422   -0.786637
C      2.488302    0.912226   -0.432771
C      3.093441    0.236777    0.734652
O      4.184128    0.665744    1.197024
O      2.516370   -0.899966    1.294438
O      3.315567    1.703554   -1.222995
C     -1.290716   -0.454847   -1.904602
O     -0.366321   -0.557290   -2.753947
O     -2.609854   -0.492915   -2.340409
C     -2.902046    0.315787    0.957065
O     -2.560115    1.021256    1.942429
O     -4.053719    0.635028    0.249042
H     -2.687563   -1.609256    0.051411
H     -1.575875   -1.306286    1.409560
H      0.299605    0.147858    1.111125
H      0.883886    1.302712   -1.692639
H      2.947590   -1.368631    2.082197
