31

C      3.684012   -0.524326    1.499521
C      2.319861   -0.252384    1.368687
C      1.778850    0.082232    0.116560
C      2.622210    0.133359   -1.010686
C      3.991255   -0.138116   -0.870563
C      4.522903   -0.466926    0.383371
O      5.881272   -0.738984    0.529775
O      2.097073    0.440854   -2.265914
C      0.329925    0.374490   -0.002432
C     -0.624379   -0.614860    0.296509
C     -1.999782   -0.301174    0.181874
C     -2.350964    1.005721   -0.237250
C     -3.695889    1.366908   -0.371364
C     -4.707244    0.441604   -0.091703
C     -4.371019   -0.848306    0.323549
C     -3.031034   -1.222774    0.461247
O     -6.048639    0.794007   -0.222826
O     -1.412009    1.904557   -0.506404
C     -0.115013    1.646335   -0.404665
O      0.712018    2.561796   -0.661789
O     -0.167981   -1.880391    0.684522
H      4.090285   -0.778098    2.470393
H      1.685043   -0.294299    2.245464
H      4.640219   -0.098097   -1.736385
H      6.516050   -0.706235   -0.259448
H      2.683053    0.480677   -3.091609
H     -3.953761    2.368564   -0.692748
H     -5.152661   -1.565324    0.541214
H     -2.832310   -2.231188    0.786857
H     -6.325819    1.721732   -0.521839
H     -0.765523   -2.661353    0.911487
