20

C      2.434493    0.475918    0.096220
C      1.153547   -0.155605   -0.477044
C      0.019626   -0.173208    0.568866
C     -1.244549   -0.789458    0.020061
C     -2.247464    0.081938    0.061730
C     -1.730404    1.303088    0.623402
O     -2.384905    2.359909    0.819180
O     -0.387654    1.151736    0.919350
O     -3.561320   -0.124879   -0.353868
O     -1.327241   -2.099373   -0.449884
O      0.754063    0.502143   -1.655663
O      3.460222    0.456978   -0.859424
H      2.240724    1.531133    0.384432
H      2.755430   -0.070613    1.012583
H      1.387173   -1.210772   -0.739508
H      0.334631   -0.723498    1.482059
H     -3.871655   -1.005389   -0.743600
H     -2.186951   -2.491799   -0.811022
H      0.608005    1.458920   -1.434672
H      3.794228   -0.477169   -0.899268
