13

C     -0.659468   -0.731409    0.379238
C      0.392627    0.048065    0.074120
C      1.777628   -0.444299    0.254037
O      1.999957   -1.604231    0.696903
O      2.851922    0.379557   -0.068218
O      0.189019    1.337943   -0.418631
C     -2.067033   -0.314629    0.228412
O     -2.981944   -1.121323    0.543096
O     -2.404749    0.947535   -0.252887
H     -0.489302   -1.731356    0.761155
H      3.806142    0.059843    0.048266
H      0.959377    1.950175   -0.657932
H     -3.374177    1.224128   -0.352762
