42

C     -2.466251   -4.605894   -4.050992
O     -2.776113   -3.216578   -4.011582
C     -2.186850   -2.292960   -3.133077
C     -2.585441   -0.944759   -3.197114
C     -2.002419    0.009298   -2.339605
C     -1.040875   -0.395061   -1.389614
C     -0.653666   -1.740586   -1.328181
C     -1.216371   -2.679700   -2.191917
C     -0.430383    0.609697   -0.493453
C     -0.707771    1.961617   -0.711709
C     -0.098052    2.919385    0.096716
O     -0.328718    4.143605   -0.103248
C      0.759831    2.503021    1.129019
C      0.986758    1.114887    1.305671
O      0.390299    0.245281    0.490506
C      1.844280    0.669800    2.345911
C      2.456100    1.611338    3.191000
C      2.222397    2.984187    3.000924
C      1.384457    3.425439    1.980490
O      3.295805    1.138472    4.212885
C      3.983263    1.968301    5.143862
O      2.130668   -0.685162    2.598215
C      1.676403   -1.799544    1.840477
O     -1.568316    2.343183   -1.745340
C     -2.494950    1.440512   -2.352992
O     -3.566053   -0.541192   -4.106538
H     -1.392895   -4.751035   -4.296003
H     -2.703770   -5.078058   -3.074349
H     -3.078689   -5.091404   -4.838090
H      0.090581   -2.069879   -0.617692
H     -0.889757   -3.707842   -2.117267
H      2.685921    3.722683    3.640517
H      1.224503    4.490308    1.862083
H      3.255340    2.559307    5.738868
H      4.681080    2.646283    4.608530
H      4.569964    1.328845    5.834662
H      2.038373   -1.720856    0.794126
H      0.568869   -1.864887    1.879183
H      2.092946   -2.727541    2.282509
H     -2.678823    1.778815   -3.394434
H     -3.454495    1.487163   -1.795987
H     -4.017182   -1.188491   -4.741573
