37

C     -4.997291    0.744674    1.522037
C     -4.929255    2.099529    1.197416
C     -3.956616    2.556090    0.308060
C     -3.046171    1.659770   -0.262423
C     -3.104336    0.281095    0.056010
C     -4.094679   -0.163032    0.959425
C     -2.160163   -0.582351   -0.550619
C     -1.195780   -0.040245   -1.426473
C     -1.227933    1.343549   -1.686556
O     -0.400040    1.865253   -2.479488
O     -2.131491    2.120250   -1.105031
C     -0.144956   -0.918699   -2.081083
C      1.236201   -0.644538   -1.514933
C      1.566600   -1.055909   -0.208202
C      2.854534   -0.767758    0.303040
C      3.272593   -1.128417    1.602539
C      4.561183   -0.812334    2.043936
C      5.447847   -0.136950    1.205105
C      5.051163    0.227580   -0.081555
C      3.764792   -0.081570   -0.537010
O      3.412707    0.275972   -1.764804
C      2.214475    0.026823   -2.275533
O      1.969421    0.399471   -3.453818
O      0.600665   -1.742532    0.535538
O     -2.151699   -1.962742   -0.317143
H     -5.752886    0.395247    2.214041
H     -5.631000    2.796911    1.636449
H     -3.909265    3.609382    0.061148
H     -4.192192   -1.196457    1.250087
H     -0.372876   -1.997871   -1.955750
H     -0.175021   -0.748724   -3.178373
H      2.629613   -1.648607    2.294019
H      4.873260   -1.092351    3.041974
H      6.443912    0.104688    1.552955
H      5.744637    0.751941   -0.727124
H      0.733801   -2.086289    1.474837
H     -2.803752   -2.450848    0.278433
