30

C      4.614723   -0.031913   -0.944147
C      3.639417    1.128555   -0.792377
C      2.340434    0.647491   -0.311669
C      1.272651    0.250072    0.083473
C     -0.033610   -0.238576    0.566350
C     -0.204725    0.199659    2.032291
C     -0.040463   -1.775475    0.475586
C     -1.146287    0.369715   -0.322790
N     -2.487889   -0.089747    0.118132
C     -3.172026   -0.851181   -0.939449
C     -3.330658    1.038227    0.546725
H      4.225965   -0.770475   -1.678019
H      4.772817   -0.534668    0.034382
H      5.591522    0.350011   -1.308754
H      3.500611    1.630015   -1.773411
H      4.045260    1.864603   -0.066727
H      0.629366   -0.187915    2.657428
H     -0.214079    1.308655    2.111268
H     -1.156426   -0.189862    2.452797
H      0.797772   -2.206983    1.065442
H      0.069327   -2.106167   -0.580273
H     -0.989702   -2.190929    0.876368
H     -1.061603    1.482128   -0.292699
H     -0.946125    0.095764   -1.386025
H     -4.142880   -1.240811   -0.564482
H     -2.558560   -1.728839   -1.235921
H     -3.355195   -0.217125   -1.835602
H     -2.837481    1.590100    1.375406
H     -3.519050    1.740807   -0.295618
H     -4.303106    0.664865    0.933931
