27

C      3.530894    0.402203    1.211733
C      3.245019   -0.023556   -0.227850
C      2.219205   -1.166769   -0.325483
C      0.822428   -0.830729    0.227114
C      0.131552    0.301576   -0.543928
C     -1.280728    0.472985   -0.067800
C     -2.324085   -0.268015   -0.641762
C     -3.622665   -0.092914   -0.155510
C     -3.845824    0.807603    0.885907
C     -2.758591    1.508792    1.416011
O     -2.934951    2.324287    2.358503
O     -1.534946    1.318168    0.929985
O     -4.690470   -0.805413   -0.696185
H      3.791378   -0.479905    1.834441
H      4.386975    1.109255    1.224147
H      2.651928    0.920042    1.648604
H      4.197095   -0.376148   -0.680418
H      2.911531    0.854318   -0.819720
H      2.122275   -1.465939   -1.391936
H      2.613322   -2.050005    0.223072
H      0.200337   -1.749631    0.148062
H      0.885554   -0.573201    1.305838
H      0.674154    1.256754   -0.382533
H      0.139412    0.081947   -1.634186
H     -2.129337   -0.966971   -1.445993
H     -4.844923    0.957413    1.276904
H     -4.556541   -1.466148   -1.452746
