18

C      2.488322    0.214127    0.220968
C      2.392481   -1.178573    0.145373
C      1.143085   -1.790714    0.009962
C     -0.017669   -1.011647   -0.050520
C      0.074641    0.398034    0.025600
C      1.335625    1.003839    0.161673
C     -1.109844    1.148216   -0.038284
C     -2.331298    0.480733   -0.173996
C     -2.340801   -0.915730   -0.242465
O     -3.432112   -1.531050   -0.364645
O     -1.203195   -1.601162   -0.179406
O     -1.075342    2.541131    0.032133
H      3.458387    0.682686    0.325754
H      3.288149   -1.784466    0.191811
H      1.077272   -2.869931   -0.047894
H      1.433373    2.080695    0.222121
H     -3.258834    1.038052   -0.225505
H     -1.922241    3.095761   -0.012681
