18

C     -0.885990    0.891106    0.607851
C      0.233338    0.236785    0.062437
C      0.030442   -0.858523   -0.797811
C     -1.264298   -1.304110   -1.083344
C     -2.368014   -0.657981   -0.520656
C     -2.183051    0.441610    0.321987
O     -3.292891    1.080955    0.869980
O     -1.453762   -2.387853   -1.932047
C      1.597053    0.735326    0.365299
O      1.771577    1.971269    0.542501
C      2.760551   -0.162045    0.491559
O      2.608164   -1.410583    0.570049
O      4.040747    0.379131    0.563229
H     -0.752637    1.742218    1.264713
H      0.868787   -1.354087   -1.269992
H     -3.369029   -1.005793   -0.743354
H     -3.193903    1.880718    1.484358
H      4.852915   -0.218144    0.663084
