22

C      2.423964   -1.391489   -0.340259
C      1.067122   -0.770314   -0.127351
C     -0.057984   -1.606409   -0.080542
C     -1.340605   -1.077468    0.094228
C     -1.517189    0.310786    0.222473
C     -0.390522    1.155267    0.226282
C      0.904033    0.626795    0.041037
C      2.070174    1.542647    0.043991
O      3.086109    1.269901    0.736302
O      2.061481    2.713985   -0.709760
O     -0.557320    2.521546    0.442881
C     -2.893339    0.881830    0.447025
O     -2.441737   -1.933111    0.143952
H      2.339665   -2.430045   -0.725696
H      2.976700   -1.419144    0.621858
H      3.003700   -0.807700   -1.085945
H      0.059246   -2.678418   -0.184736
H      1.294113    2.938691   -1.331470
H     -3.670434    0.261198   -0.046594
H     -3.102005    0.925076    1.536355
H     -2.974898    1.903857    0.020804
H     -2.340273   -2.937482    0.055166
