45

C      6.326965    0.171506   -0.738175
C      5.511008    0.662581    0.456967
C      4.472814   -0.364986    0.942403
C      3.405295   -0.753966   -0.096797
C      2.500727    0.424457   -0.494645
C      1.414233    0.027769   -1.510764
C      0.399784   -1.024593   -1.017216
C     -0.308563   -0.686961    0.307129
C     -1.154343    0.594456    0.220666
C     -1.870200    0.927497    1.543173
C     -2.953846   -0.082947    1.956131
C     -4.018429   -0.232107    0.907786
C     -5.031797    0.728019    0.775573
C     -5.989647    0.563492   -0.228800
C     -5.912093   -0.545758   -1.070823
C     -4.873298   -1.462750   -0.884533
O     -4.781262   -2.470228   -1.633451
O     -3.977933   -1.275921    0.081217
O     -7.014662    1.491357   -0.397767
H      6.755142   -0.832360   -0.531623
H      5.696648    0.127403   -1.650510
H      7.160764    0.878939   -0.931255
H      5.023354    1.627862    0.207935
H      6.212440    0.863667    1.295527
H      5.006623   -1.286998    1.260931
H      3.966006    0.042009    1.844527
H      2.783857   -1.550849    0.362505
H      3.883552   -1.190833   -0.998618
H      3.119443    1.210821   -0.974982
H      2.039436    0.878423    0.407463
H      0.868534    0.942845   -1.824624
H      1.908784   -0.367041   -2.425038
H      0.910938   -2.004605   -0.908947
H     -0.370400   -1.163083   -1.807237
H     -0.970362   -1.545093    0.546638
H      0.430537   -0.605950    1.131676
H     -1.892712    0.508225   -0.605228
H     -0.491611    1.452994   -0.016112
H     -2.338764    1.931324    1.446020
H     -1.117367    0.999049    2.358144
H     -2.498368   -1.071248    2.174456
H     -3.421342    0.263077    2.903596
H     -5.071117    1.585244    1.436477
H     -6.644571   -0.691006   -1.855597
H     -7.094199    2.306265    0.199302
