17

C      0.752192    0.000665   -0.088575
C      1.921678   -0.161789    0.538933
C      3.210526    0.056050   -0.136499
O      4.281533   -0.111944    0.504807
O      3.260782    0.444904   -1.472916
C     -0.520796   -0.238869    0.625706
C     -1.747975   -0.032212    0.102589
C     -2.961229   -0.340304    0.896698
O     -2.866755   -0.805220    2.064438
O     -4.230690   -0.122008    0.365568
O     -1.937690    0.477556   -1.186297
H      0.757694    0.293577   -1.127177
H      1.938185   -0.462429    1.580546
H      4.148299    0.594880   -1.937730
H     -0.444971   -0.615340    1.639872
H     -4.365698    0.249441   -0.566741
H     -1.195083    0.773043   -1.803223
