50

C     -7.212593    1.431100   -2.013141
C     -6.483688    0.374317   -1.220897
C     -7.097406   -0.875696   -0.969997
C     -6.418836   -1.851612   -0.235160
C     -5.138045   -1.610527    0.258582
C     -4.510043   -0.379134    0.021261
C     -5.185926    0.619706   -0.717554
O     -4.596416    1.793466   -0.932405
C     -3.377314    2.086357   -0.495238
O     -2.888918    3.219292   -0.749922
C     -2.632976    1.142450    0.227468
C     -3.223179   -0.103539    0.513590
O     -2.565180   -1.054368    1.299452
N     -1.303770    1.462455    0.666432
C     -0.159964    0.700794    0.246398
O     -0.288220   -0.165080   -0.662574
C      1.172793    0.929320    0.853874
C      2.337502    0.542817    0.167350
C      3.608211    0.746924    0.731698
C      3.711485    1.311491    2.017121
C      2.552681    1.691615    2.705369
C      1.294142    1.503475    2.130533
O      4.962335    1.487927    2.609000
C      4.837837    0.298402   -0.017646
C      5.201930   -1.118702    0.351501
C      6.265172   -1.766139   -0.169778
C      7.187596   -1.099321   -1.162931
C      6.529774   -3.185542    0.260750
O     -8.379420   -1.178890   -1.435033
H     -8.148773    1.713310   -1.486800
H     -7.459838    1.038672   -3.022012
H     -6.610992    2.353156   -2.151086
H     -6.891209   -2.807123   -0.044276
H     -4.643401   -2.390383    0.824206
H     -1.684551   -0.870191    1.762326
H     -1.147816    2.396013    1.108787
H      2.260038    0.088290   -0.813434
H      2.625953    2.124709    3.694971
H      0.418163    1.783033    2.701075
H      5.059985    1.889177    3.534319
H      5.687527    0.976684    0.210664
H      4.652413    0.358559   -1.112099
H      4.572065   -1.644357    1.066685
H      8.005292   -1.779343   -1.479555
H      7.649720   -0.199600   -0.705210
H      6.619715   -0.802370   -2.069389
H      7.432215   -3.601842   -0.232080
H      6.685066   -3.222386    1.360105
H      5.661854   -3.825933   -0.004341
H     -8.942991   -0.531434   -1.970550
