20

C      3.147860   -0.061251   -0.386072
C      1.655603   -0.144243   -0.226875
C      0.883002    1.026956   -0.148482
C     -0.514503    0.953864    0.021947
C     -1.143820   -0.316441    0.091938
C     -0.351941   -1.475281    0.048562
C      1.030787   -1.390827   -0.106470
C     -2.613795   -0.479262    0.168840
O     -3.383702    0.343069   -0.396167
O     -3.156065   -1.583404    0.821363
N     -1.263205    2.168966    0.182527
O      1.508782    2.268742   -0.223691
H      3.598822    0.337393    0.546796
H      3.591088   -1.057822   -0.597126
H      3.402451    0.612883   -1.231065
H     -0.807775   -2.456259    0.107634
H      1.612580   -2.303630   -0.144502
H     -4.158752   -1.720944    0.865587
H     -0.835331    3.097098   -0.030725
H     -2.202086    2.180392    0.635981
