38

C     -0.657477    3.594569   -1.010200
C     -0.413594    2.114846   -0.818846
C     -1.291764    1.451809   -0.015522
C     -1.158497    0.088341    0.649080
C     -1.442788   -1.211085   -0.165312
C     -0.474059   -1.481684   -1.312173
C      0.854857   -1.708720   -1.272407
C      1.725038   -1.743655   -0.086485
O      2.276577   -2.842414    0.189872
C      2.026200   -0.566127    0.769561
C      2.057047    0.715376    0.338396
C      2.025187    1.177814   -1.092215
C      0.638593    1.465527   -1.705789
C      2.334111   -0.826866    2.222077
C     -2.870587   -1.111816   -0.752385
C     -1.417046   -2.419928    0.796723
H     -1.648677    3.756507   -1.484759
H      0.119564    4.067456   -1.646600
H     -0.638333    4.107186   -0.024857
H     -2.106086    2.045227    0.397545
H     -1.917023    0.100107    1.464408
H     -0.244957    0.036227    1.238294
H     -0.910464   -1.543235   -2.304236
H      1.334510   -1.973523   -2.207079
H      2.267487    1.492599    1.065340
H      2.578616    0.461507   -1.736459
H      2.605909    2.125653   -1.132828
H      0.837036    2.149578   -2.559360
H      0.220797    0.614947   -2.250317
H      1.932796   -0.016295    2.868087
H      3.433486   -0.891730    2.361322
H      1.871122   -1.777991    2.560944
H     -2.938110   -0.276428   -1.482639
H     -3.147944   -2.051918   -1.277816
H     -3.620252   -0.932928    0.048835
H     -0.446990   -2.489203    1.330190
H     -2.214382   -2.330342    1.566183
H     -1.579902   -3.369389    0.241410
