19

C     -1.051092   -0.837747    0.292472
C     -2.443391   -0.951120    0.222755
C     -3.208556    0.096040   -0.296658
C     -2.581986    1.262041   -0.742916
C     -1.190568    1.380805   -0.674734
C     -0.406784    0.329121   -0.168878
C      1.065264    0.506640   -0.107443
C      1.935782   -0.509823   -0.025216
C      3.391788   -0.295987    0.022197
O      3.879323    0.867012    0.010557
O      4.238844   -1.397579    0.082590
O     -4.591383   -0.020405   -0.365241
H     -0.493831   -1.654633    0.728803
H     -2.928249   -1.850948    0.579746
H     -3.172790    2.076974   -1.141584
H     -0.724016    2.293342   -1.025855
H      1.446969    1.519132   -0.174681
H      1.590304   -1.533940   -0.017561
H      5.244373   -1.278926    0.116745
