45

C     -5.133297   -1.565414   -2.211722
C     -4.558437   -0.785077   -1.066691
C     -3.187643   -0.496238   -1.027884
C     -2.643842    0.271489    0.015825
C     -3.490911    0.742076    1.048960
C     -4.868833    0.479609    0.979115
C     -5.398122   -0.273767   -0.069972
C     -2.963026    1.535420    2.215658
C     -1.195083    0.567152   -0.002649
C     -0.213926   -0.329365   -0.061850
C      1.157536    0.325676   -0.101334
C      1.907682   -0.007009   -1.423663
C      3.000182   -1.065373   -1.224098
C      4.065848   -0.613113   -0.199345
C      3.463579    0.228112    0.957851
C      1.970327   -0.047014    1.164097
O      5.050683    0.147072   -0.881229
C      6.310074   -0.000372   -0.261526
N      0.829942    1.753260   -0.071683
C     -0.578706    1.874794   -0.021811
O     -1.186915    2.976851   -0.042451
O     -0.438654   -1.704388   -0.077933
H     -5.401246   -0.870251   -3.034523
H     -6.042972   -2.117750   -1.893116
H     -4.396831   -2.306778   -2.588682
H     -2.543557   -0.856365   -1.822219
H     -5.537582    0.854055    1.744591
H     -6.464340   -0.461688   -0.102033
H     -3.619761    1.416307    3.103752
H     -2.924386    2.611353    1.948596
H     -1.949973    1.187789    2.507883
H      1.197920   -0.356092   -2.205929
H      2.394191    0.909647   -1.825252
H      2.531397   -2.011820   -0.879602
H      3.484938   -1.285451   -2.200336
H      4.489658   -1.554058    0.230190
H      3.599572    1.312565    0.750597
H      4.008147    0.002512    1.900208
H      1.842935   -1.124678    1.408426
H      1.603376    0.532210    2.040043
H      6.684745   -1.041881   -0.370493
H      7.033542    0.671565   -0.766928
H      6.274335    0.289903    0.811668
H      1.509070    2.546730   -0.092039
H      0.328366   -2.362206   -0.119644
