19

C     -3.351270    0.766333   -0.554013
O     -2.541501   -0.382175   -0.324369
C     -1.150535   -0.348278   -0.139550
C     -0.473730   -1.554965    0.078437
C      0.912178   -1.566253    0.266547
C      1.649791   -0.369864    0.232002
C      0.967220    0.841338    0.023611
C     -0.418177    0.852939   -0.163189
C      3.118824   -0.398596    0.436647
O      3.649293   -1.381034    1.020371
O      3.944097    0.631007   -0.014473
O     -1.179664   -2.752231    0.108763
H     -4.407964    0.448248   -0.666117
H     -3.279241    1.462853    0.307891
H     -3.032960    1.277655   -1.486997
H      1.411004   -2.514072    0.428920
H      1.491693    1.786846    0.028446
H     -0.910720    1.803047   -0.318849
H      3.601665    1.397201   -0.579269
