15

C      0.427117   -0.026588    0.047038
C      1.255211    0.968111   -0.284871
C      2.712592    0.860541   -0.117555
O      3.446822    1.829501   -0.447036
O      3.288960   -0.297081    0.399566
C     -1.031077    0.111999   -0.132890
C     -1.887124   -0.868728    0.190994
C     -3.341927   -0.714593    0.005066
O     -3.830078    0.347505   -0.465930
O     -4.192148   -1.756158    0.354054
O     -1.412781   -2.067547    0.716102
H      0.828653   -0.947287    0.453486
H      0.854548    1.889824   -0.691656
H      4.292666   -0.371325    0.514862
H     -1.411432    1.041826   -0.541230
