48

C      3.325985    1.213594    2.522866
C      3.299786    0.902654    1.051937
C      4.086270   -0.084605    0.580119
C      4.022162   -0.585143   -0.814166
C      4.946953   -1.373299   -1.387952
C      6.245635   -1.727355   -0.777951
O      6.796149   -0.982447    0.076624
O      6.901924   -2.875872   -1.207099
O      4.668094   -1.890651   -2.649537
C      2.368459    1.657543    0.180306
O      2.781166    2.138048   -0.908615
C      0.918205    1.803959    0.542910
C      0.124172    0.590414    0.032988
C     -1.385210    0.672791    0.382872
C     -2.216261   -0.148027   -0.621198
C     -2.302747    0.330461   -2.075926
C     -3.506024   -0.434383   -2.646371
C     -4.289756   -0.822084   -1.434549
O     -5.348319   -1.430045   -1.484191
C     -3.672687   -0.322684   -0.170427
C     -3.665503   -1.317837    0.998585
C     -2.776327   -0.816956    2.166283
C     -1.650811    0.155796    1.804548
O     -0.967302    0.582357    2.723148
C     -4.395434    0.994283    0.219091
H      4.357947    1.129595    2.926426
H      2.662279    0.507142    3.064404
H      2.978314    2.251436    2.709198
H      4.732526   -0.597724    1.281153
H      3.130717   -0.370990   -1.391478
H      7.799532   -3.138350   -0.817684
H      0.813463    1.909153    1.640794
H      0.518405    2.733051    0.079337
H      0.556690   -0.349232    0.446952
H      0.259979    0.550603   -1.070054
H     -1.711065    1.734576    0.325942
H     -1.736768   -1.158084   -0.674920
H     -1.380447    0.090137   -2.647449
H     -2.485263    1.426751   -2.115428
H     -4.109658    0.211725   -3.319893
H     -3.171511   -1.348291   -3.182460
H     -4.701856   -1.489328    1.363305
H     -3.282854   -2.303978    0.650580
H     -3.432133   -0.310110    2.906666
H     -2.332741   -1.697386    2.678525
H     -5.469536    0.792260    0.417616
H     -4.333566    1.743481   -0.597735
H     -3.971036    1.453052    1.134991
