22

C     -1.752784   -1.538297    0.576784
C     -2.914595   -0.776251    0.450044
C     -2.840452    0.581425    0.131314
C     -1.588221    1.188223   -0.064254
C     -0.405896    0.428673    0.060488
C     -0.491524   -0.947240    0.383992
C      0.694792   -1.690069    0.508907
O      0.663569   -2.915675    0.805913
C      1.927512   -1.068743    0.307486
C      1.981312    0.293712   -0.023181
N      0.819497    1.006162   -0.128170
C      3.283961    0.971844   -0.232798
O      3.364742    2.220770   -0.092184
O      4.430199    0.267733   -0.600350
O     -1.522621    2.541915   -0.381431
O     -4.022264    1.312524    0.012964
H     -1.844233   -2.588576    0.825512
H     -3.879597   -1.243528    0.600855
H      2.832464   -1.647955    0.436711
H      0.875066    2.020798   -0.373042
H      4.414290   -0.716621   -0.833296
H     -4.025218    2.299176   -0.216179
