17

C     -1.662492    0.166830   -0.142237
C     -0.466801    0.633018   -0.564721
C      0.726291   -0.243418   -0.630493
C      1.905534    0.095068   -0.086149
C      3.078087   -0.794340   -0.173880
O      3.014630   -1.898688   -0.777637
O      4.275467   -0.411118    0.416769
O      2.039842    1.299531    0.598588
C     -0.358175    2.022174   -1.077471
O     -1.283965    2.856214   -0.888334
O      0.769548    2.419693   -1.786734
C     -1.915352   -1.178336    0.427141
O     -0.970505   -1.933357    0.777833
O     -3.224454   -1.610815    0.618734
H     -2.527057    0.816853   -0.202813
H      0.614159   -1.206913   -1.113797
H     -4.014757   -1.032395    0.359456
