36

C      5.163044    0.626803   -1.136575
C      3.813865    0.242359   -0.604832
C      3.680783   -0.229787    0.706351
C      2.431839   -0.613925    1.206770
C      1.289345   -0.563520    0.369075
C      1.437680   -0.109804   -0.959802
C      2.689065    0.289960   -1.435642
O      0.350832   -0.074429   -1.827745
C     -0.041236   -1.015007    0.850568
O     -0.134040   -2.111882    1.465597
C     -1.278408   -0.243035    0.560638
C     -1.348945    1.158891    0.782044
C     -2.502671    1.860199    0.400147
C     -3.588014    1.195257   -0.166967
C     -3.533441   -0.186178   -0.364345
C     -2.383256   -0.915210   -0.010321
O     -2.297117   -2.300764   -0.233378
C     -3.327499   -3.095911   -0.811063
O     -4.723442    1.918810   -0.525958
C     -0.269946    1.908690    1.465477
O      0.291337    1.422016    2.482099
O      0.118054    3.169712    1.018724
O      2.361800   -1.010618    2.544445
H      5.067927    1.410429   -1.918241
H      5.654290   -0.265950   -1.576707
H      5.804457    1.029834   -0.324024
H      4.548868   -0.282851    1.352559
H      2.784366    0.627448   -2.460742
H     -2.577573    2.927091    0.573194
H     -4.388235   -0.681000   -0.804450
H     -4.242114   -3.051244   -0.182884
H     -3.550612   -2.743181   -1.840114
H     -2.984819   -4.149498   -0.864004
H     -5.531701    1.467816   -0.938578
H     -0.276680    3.580959    0.181554
H      1.492199   -1.192481    3.027129
