45

C     -2.812557   -3.064176   -1.279901
C     -3.107322   -1.772993   -0.837601
C     -2.076579   -0.872766   -0.503797
C     -0.729706   -1.293859   -0.649716
C     -0.449490   -2.601747   -1.082856
C     -1.487526   -3.480731   -1.394455
O      0.876445   -3.023002   -1.215948
C      1.955005   -2.202095   -0.868382
C      1.729088   -0.894469   -0.398574
N      0.375716   -0.398369   -0.434934
C      2.834901   -0.099789    0.029437
C      4.153865   -0.605469   -0.151006
C      4.344146   -1.900194   -0.671815
C      3.249651   -2.693253   -1.003056
O      5.624084   -2.415617   -0.850450
N      5.235809    0.156048    0.195875
C      5.106872    1.392154    0.757071
C      3.828487    1.904269    0.999104
C      2.697662    1.159784    0.664497
O      1.570572    1.625799    0.977615
C      6.318193    2.177099    1.100432
O      7.402941    1.937009    0.507298
O      6.300275    3.170735    2.078797
C     -2.419581    0.468080    0.038855
O     -1.706969    0.973013    0.948391
C     -3.621275    1.237647   -0.446883
C     -4.797899    1.168313    0.551406
C     -4.476402    1.909843    1.823734
O     -4.312534    3.158880    1.812198
O     -4.345876    1.213093    3.018514
N     -6.018692    1.711631   -0.055872
H     -3.615556   -3.747424   -1.524901
H     -4.146443   -1.491120   -0.736981
H     -1.265774   -4.485120   -1.732037
H      0.208116    0.619074   -0.582355
H      3.406589   -3.695627   -1.381871
H      6.198617   -0.222208    0.045390
H      3.696551    2.884008    1.439648
H      5.495961    3.342036    2.667968
H     -3.941178    0.838733   -1.433761
H     -3.329253    2.297303   -0.615975
H     -4.985234    0.102226    0.810408
H     -6.805762    1.674320    0.632592
H     -6.286089    1.136345   -0.887621
H     -5.871851    2.702585   -0.358479
