28

C      2.509248    1.375755   -0.691807
C      1.644645    0.198067   -0.221105
C      2.281577   -0.446269    1.020065
C      0.199803    0.686516    0.047359
C     -0.823638   -0.417682    0.434669
C     -2.156099    0.216930    0.902265
C     -2.854642    0.998666   -0.176646
O     -3.634568    0.412494   -0.972647
O     -2.633329    2.365473   -0.320379
C     -1.067948   -1.439336   -0.704255
N     -0.009579   -2.444696   -0.746174
H      2.570964    2.157287    0.096049
H      2.078287    1.826719   -1.611216
H      3.536645    1.028025   -0.932769
H      1.638887   -0.544346   -1.045872
H      3.352426   -0.673197    0.829984
H      1.785350   -1.407141    1.264529
H      2.212065    0.234459    1.895474
H      0.234315    1.444442    0.861610
H     -0.168934    1.207485   -0.863414
H     -0.438710   -0.965214    1.321065
H     -2.837670   -0.581424    1.269713
H     -1.964599    0.885155    1.769771
H     -2.007747    2.864595    0.300531
H     -1.118125   -0.912869   -1.682792
H     -2.042114   -1.958065   -0.555226
H     -0.177400   -3.050536   -1.581752
H     -0.109109   -3.061293    0.092969
