34

C     -1.732055   -0.934970   -0.819474
C     -1.515393    0.388823   -1.543782
C     -0.715885    1.188624   -0.587061
O     -0.297985    2.305759   -0.849602
C     -0.514265    0.530668    0.736908
C     -1.489287   -0.669353    0.682575
C     -2.804467   -0.343761    1.427121
C     -3.708205   -1.540357    1.514424
O     -3.429673   -2.479007    2.306254
O     -4.844901   -1.634779    0.716201
C      0.944056    0.062224    0.915071
C      1.891104    1.232503    1.042660
C      2.762100    1.628207    0.094960
C      2.968880    0.934138   -1.226980
C      3.898134   -0.273531   -1.076896
O      4.080299   -0.900123   -2.317062
H     -0.978572   -1.670537   -1.179201
H     -2.740466   -1.346675   -1.035724
H     -0.960527    0.238594   -2.494854
H     -2.485264    0.895721   -1.736820
H     -0.779597    1.236868    1.555928
H     -1.038000   -1.572126    1.154298
H     -2.571248   -0.017678    2.464173
H     -3.332434    0.496213    0.925189
H     -5.092287   -0.900842    0.063347
H      1.018267   -0.522850    1.856799
H      1.225465   -0.625740    0.091877
H      1.817897    1.831707    1.945797
H      3.349496    2.521775    0.286101
H      1.996945    0.634589   -1.673268
H      3.441115    1.653730   -1.930057
H      3.496235   -0.999982   -0.335690
H      4.888178    0.070042   -0.707703
H      3.252340   -1.417876   -2.497072
