26

C     -0.441970   -0.243208    1.478591
C      0.836174    0.562771    1.223312
C      1.798080   -0.197588    0.279154
C      1.054412   -1.056648   -0.778730
C     -0.340951   -0.503008   -1.090108
C     -1.245961   -0.487130    0.171402
C     -2.379670    0.547501    0.020241
N     -3.188130    0.264020   -1.163032
C      2.756340    0.771324   -0.368620
O      2.362770    1.526014   -1.297667
O      4.071879    0.872807    0.076169
H     -1.060542    0.278774    2.240990
H     -0.156254   -1.223676    1.920489
H      0.550349    1.546947    0.788976
H      1.347645    0.760947    2.190512
H      2.393473   -0.901688    0.902026
H      1.644315   -1.131989   -1.718848
H      0.939308   -2.093856   -0.392429
H     -0.228691    0.523505   -1.503974
H     -0.814679   -1.128718   -1.877616
H     -1.720249   -1.490302    0.263914
H     -1.945580    1.568113   -0.066693
H     -3.031961    0.527795    0.922469
H     -3.721928   -0.618941   -0.990655
H     -3.897134    1.027155   -1.254565
H      4.418953    0.299079    0.835279
