30

C     -4.775254   -0.159401    0.350844
C     -3.963940   -1.297076    0.332886
C     -2.593061   -1.176770    0.084121
C     -2.026236    0.084183   -0.164649
C     -2.845551    1.226120   -0.122197
C     -4.215853    1.101427    0.126939
C     -0.570365    0.204407   -0.387342
N      0.270288   -0.385010    0.507365
C      1.619767   -0.283117    0.392317
C      2.492656   -0.880345    1.311875
N      3.834698   -0.732597    1.144618
C      4.346394   -0.018676    0.104898
N      3.511756    0.565357   -0.796290
C      2.165448    0.447899   -0.671955
N      1.337617    1.022965   -1.579927
C     -0.015771    0.918088   -1.477932
N     -0.830647    1.482357   -2.510371
N      5.758133    0.115720   -0.040457
N      2.000504   -1.638740    2.419709
H     -5.835784   -0.254090    0.545157
H     -4.396805   -2.272327    0.514525
H     -1.975527   -2.066744    0.076706
H     -2.422623    2.211874   -0.272128
H     -4.842959    1.983197    0.153003
H     -1.848119    1.268425   -2.593909
H     -0.388633    2.049529   -3.267423
H      6.405147   -0.330248    0.647083
H      6.158127    0.661385   -0.835747
H      2.669297   -2.074102    3.093056
H      0.977296   -1.773691    2.578172
