18

C     -2.532451   -0.433914    0.858604
N     -1.273279   -0.027365    0.230254
C     -1.229876    1.113889   -0.518798
C     -0.033498    1.533559   -1.098898
C      1.127664    0.791100   -0.894179
C      1.092973   -0.364223   -0.098808
C     -0.138412   -0.755821    0.456799
C      2.312793   -1.173177    0.142904
O      2.203888   -2.377839    0.495298
O      3.591599   -0.634299    0.005301
H     -3.402773   -0.110454    0.247236
H     -2.608484    0.022940    1.867755
H     -2.585691   -1.540057    0.955498
H     -2.124685    1.704486   -0.676874
H     -0.007733    2.428881   -1.706714
H      2.039507    1.116342   -1.375448
H     -0.185287   -1.641771    1.080329
H      3.753743    0.347724   -0.175177
