39

C      5.818987    0.259540   -1.565321
C      5.098963   -0.905635   -1.845267
C      3.734881   -0.975595   -1.545668
C      3.078581    0.126002   -0.970286
C      3.811084    1.292211   -0.688479
C      5.175555    1.357401   -0.987490
C      1.611373    0.051048   -0.625796
C      1.390588   -0.196947    0.882121
C      1.861859   -1.551377    1.344152
O      1.763026   -2.562191    0.597263
O      2.369117   -1.693659    2.631796
N     -0.015716    0.009099    1.245400
C     -1.109698   -0.785623    0.757093
O     -0.904764   -1.756609   -0.019882
C     -2.516789   -0.431246    1.131864
C     -3.072041    0.630651    0.172806
C     -4.488770    1.089814    0.564682
C     -5.484773   -0.036410    0.452250
O     -6.135499   -0.405668    1.466322
O     -5.690851   -0.668914   -0.771089
N     -4.894141    2.215233   -0.280510
H      6.874997    0.311612   -1.796948
H      5.598399   -1.755058   -2.294524
H      3.191615   -1.886044   -1.764653
H      3.325138    2.147882   -0.234731
H      5.734744    2.258017   -0.768585
H      1.131421    1.015090   -0.906141
H      1.114649   -0.736315   -1.232789
H      1.991192    0.561398    1.433154
H      2.674507   -2.596945    2.973639
H     -0.235641    0.802825    1.888465
H     -3.147015   -1.346543    1.095226
H     -2.533164   -0.047292    2.174871
H     -3.078245    0.229310   -0.864830
H     -2.397607    1.515744    0.189209
H     -4.458820    1.446711    1.619366
H     -6.357205   -1.427170   -0.858177
H     -4.999226    1.890577   -1.270247
H     -5.830712    2.555075    0.039599
