45

C     -0.376257   -1.180579    2.324316
C     -0.127902   -0.086218    1.279807
C      1.383234    0.085890    0.965310
C      2.045381   -1.120940    0.279273
C      3.510132   -0.853932    0.055052
C      4.446478   -1.150407    1.059133
C      5.802159   -0.869309    0.863772
C      6.234648   -0.282769   -0.330208
C      5.302869    0.026290   -1.330462
C      3.946399   -0.251978   -1.136803
O      7.588431   -0.008922   -0.511284
N     -0.954851   -0.348449    0.086276
C     -0.927652    0.758149   -0.884360
C     -2.201389    0.775686   -1.754666
C     -3.462108    0.830508   -0.911570
C     -4.047301   -0.338076   -0.386594
C     -5.185987   -0.258884    0.420561
C     -5.747634    0.987032    0.726154
C     -5.162480    2.152569    0.223974
C     -4.024880    2.077240   -0.584587
O     -6.882061    1.077623    1.529585
O     -2.238488   -0.285186   -2.679727
H     -1.443746   -1.165857    2.631918
H      0.248389   -1.005233    3.226281
H     -0.150360   -2.186418    1.912930
H     -0.473674    0.863092    1.748178
H      1.523337    0.986305    0.329021
H      1.916982    0.293193    1.919392
H      1.931726   -2.031342    0.904871
H      1.562672   -1.323758   -0.699335
H      4.125713   -1.595908    1.992805
H      6.516994   -1.103819    1.642656
H      5.627782    0.485753   -2.255215
H      3.236358    0.002185   -1.914271
H      7.933640    0.412450   -1.366056
H     -0.648531   -1.234141   -0.377162
H     -0.036132    0.666487   -1.543839
H     -0.864018    1.739187   -0.361203
H     -2.151915    1.706164   -2.361922
H     -3.624949   -1.312573   -0.590235
H     -5.626596   -1.166250    0.813823
H     -5.587028    3.119126    0.464765
H     -3.580474    2.993753   -0.952814
H     -7.329527    0.251493    1.909210
H     -2.027383   -1.129229   -2.206247
