25

C      4.496505    0.440320   -0.334143
S      3.263787    0.652102    0.991428
C      2.396089   -0.935789    0.706052
C      1.314824   -0.810239   -0.372504
C      0.208500    0.115829    0.053325
O      0.227949    1.312593   -0.342610
C     -0.873863   -0.348353    0.947285
O     -0.852935   -1.527732    1.392810
C     -1.980320    0.575489    1.380311
O     -3.206853   -0.117471    1.465336
P     -3.997728   -0.087339   -0.050113
O     -5.081208   -1.140642   -0.044809
O     -4.720200    1.426064   -0.294132
O     -2.918619   -0.432657   -1.311588
H      5.113088   -0.462265   -0.142489
H      5.161620    1.327801   -0.351376
H      3.996859    0.352396   -1.319998
H      1.931361   -1.256237    1.662566
H      3.120834   -1.725711    0.415379
H      0.892333   -1.816732   -0.580814
H      1.764110   -0.447786   -1.321112
H     -1.726582    0.939449    2.397506
H     -2.040204    1.486677    0.744087
H     -3.975821    2.043224   -0.505118
H     -2.513526    0.437009   -1.556132
