48

C      5.196140    0.209332   -0.810873
N      4.848634   -1.201221   -0.564314
C      4.492009   -1.442850    0.858210
C      2.978932   -1.597115    1.110328
N      2.212095   -0.814079    0.138450
C      2.467102   -1.009060   -1.292141
C      3.827090   -1.691117   -1.513844
C      1.166386    0.075040    0.569536
C      1.441548    1.103976    1.479618
C      0.430252    1.974648    1.883796
C     -0.879758    1.835541    1.386867
C     -1.175482    0.795998    0.469750
C     -0.132797   -0.068213    0.063083
N     -2.457127    0.658239   -0.013912
C     -3.445455    1.522529    0.360793
C     -3.201678    2.569312    1.261339
C     -1.901097    2.720029    1.780633
O     -1.647195    3.648700    2.597427
C     -4.318068    3.478104    1.638475
O     -4.135710    4.428261    2.446646
O     -5.587728    3.287995    1.097980
C     -2.817883   -0.399300   -0.921061
C     -3.049525   -0.117929   -2.275978
C     -3.403465   -1.145585   -3.155756
C     -3.532198   -2.456735   -2.686148
C     -3.309179   -2.740908   -1.335006
C     -2.955718   -1.715352   -0.452780
F     -3.874894   -3.452097   -3.540498
F      2.701244    1.289523    1.948669
H      4.371404    0.889060   -0.504518
H      6.108923    0.475596   -0.236473
H      5.425483    0.373583   -1.885723
H      4.998850   -2.373362    1.191741
H      4.882707   -0.632996    1.515520
H      2.695916   -2.666967    1.003356
H      2.737007   -1.299930    2.153930
H      1.663344   -1.630716   -1.740633
H      2.470127   -0.021877   -1.803694
H      3.710958   -2.789687   -1.383673
H      4.162727   -1.531734   -2.562022
H      0.679764    2.765159    2.581137
H     -0.319275   -0.864638   -0.643219
H     -4.444549    1.389281   -0.040546
H     -6.356391    3.899461    1.346132
H     -2.950066    0.894844   -2.645614
H     -3.577611   -0.924809   -4.200970
H     -3.410562   -3.755007   -0.970523
H     -2.785230   -1.940928    0.592359
