15

C      2.710362    0.002269    0.064388
S      1.228694    0.099587   -0.988762
C      0.108400   -0.618610    0.264435
C     -1.322217   -0.706986   -0.268205
C     -1.925988    0.652393   -0.443423
O     -1.983500    1.176608   -1.587914
O     -2.395681    1.349484    0.665282
H      2.567913    0.611970    0.980832
H      3.580717    0.397983   -0.498005
H      2.912459   -1.052982    0.342774
H      0.458720   -1.642987    0.514061
H      0.130487   -0.004630    1.191035
H     -1.941897   -1.279278    0.454907
H     -1.332858   -1.259672   -1.233003
H     -2.795609    2.274852    0.565773
