25

C     -4.509160    0.273189    0.611644
C     -3.723417    1.426523    0.567112
C     -2.341954    1.329566    0.371023
C     -1.731939    0.067888    0.207854
C     -2.534005   -1.085218    0.271802
C     -3.914503   -0.981616    0.467293
C     -0.270139   -0.095751    0.008521
C      0.531733    0.874130   -0.455494
C      1.985304    0.698209   -0.648923
O      2.703758    1.729004   -0.750380
N      2.588215   -0.603154   -0.754257
C      4.037125   -0.790212   -0.752987
C      4.588293   -0.541495    0.614243
O      4.432286   -1.397899    1.523842
O      5.242362    0.651073    0.896049
H     -5.577768    0.351575    0.764715
H     -4.184329    2.397892    0.692386
H     -1.761912    2.241378    0.374394
H     -2.092052   -2.068183    0.161493
H     -4.523303   -1.875643    0.507846
H      0.147423   -1.065763    0.242658
H      0.128336    1.848853   -0.691406
H      1.992166   -1.444682   -0.916146
H      4.277346   -1.832686   -1.054804
H      4.510134   -0.106977   -1.490808
