42

C     -3.011983    1.213806   -1.939406
C     -3.277886    0.514163   -0.612742
N     -2.367508    1.058417    0.423217
C     -3.082829    1.784201    1.497597
C     -3.861768    0.865137    2.450763
C     -1.407987    0.062595    0.947486
C     -0.300202   -0.209740   -0.067548
O      0.676361   -1.065528    0.516154
C      1.808948   -1.472455   -0.194566
C      3.029445   -0.786479   -0.014117
C      4.153616   -1.168787   -0.761670
C      4.078188   -2.237866   -1.653605
C      2.882365   -2.939072   -1.809848
C      1.738681   -2.570372   -1.080425
C      0.485266   -3.341602   -1.225644
O      0.393626   -4.281696   -2.059368
C      3.130450    0.389621    0.925135
C      2.832653    1.675824    0.205585
C      2.814224    2.838941    0.860103
H     -3.196006    2.304427   -1.836746
H     -3.689239    0.807700   -2.720229
H     -1.961063    1.052102   -2.258450
H     -3.145238   -0.581752   -0.754521
H     -4.349195    0.671598   -0.357692
H     -3.784628    2.520597    1.047393
H     -2.351419    2.376641    2.089242
H     -4.556685    0.202101    1.896368
H     -3.166841    0.242967    3.052149
H     -4.457570    1.486334    3.152214
H     -1.922375   -0.889384    1.208863
H     -0.920708    0.449458    1.870883
H     -0.721850   -0.690619   -0.974900
H      0.173871    0.750895   -0.361600
H      5.090636   -0.636338   -0.653521
H      4.952074   -2.527967   -2.222663
H      2.854935   -3.774215   -2.498673
H     -0.374287   -3.112594   -0.610115
H      4.153470    0.441376    1.358089
H      2.423836    0.266050    1.774364
H      2.624145    1.670483   -0.861399
H      2.594735    3.758534    0.327523
H      3.015742    2.882497    1.926325
