45

C      5.711853    2.395179   -1.613622
O      5.340962    1.093283   -1.171915
C      4.023552    0.690983   -0.900507
C      3.803784   -0.627081   -0.469841
C      2.492094   -1.059620   -0.191703
C      1.404768   -0.187777   -0.350563
C      1.634200    1.130175   -0.766575
C      2.930459    1.566422   -1.044839
C      0.009500   -0.644631   -0.017775
C     -0.308564   -0.369630    1.458210
C     -1.693836   -0.891560    1.866312
C     -2.809214   -0.114317    1.205040
C     -3.179450    1.133245    1.732630
C     -4.189049    1.893306    1.130459
C     -4.836007    1.407987   -0.015440
C     -4.467705    0.170709   -0.551622
C     -3.451865   -0.600162    0.046861
O     -3.057472   -1.840133   -0.483268
C     -3.599448   -2.426408   -1.661901
O     -5.846205    2.141507   -0.637173
O     -4.549663    3.128864    1.666060
O      4.913631   -1.475371   -0.328469
C      4.843659   -2.831629    0.099685
H      5.225647    2.621469   -2.586045
H      6.812060    2.431866   -1.749755
H      5.422186    3.152733   -0.855070
H      2.308223   -2.069564    0.149863
H      0.807397    1.821631   -0.874407
H      3.072419    2.588309   -1.368687
H     -0.091337   -1.732147   -0.228180
H     -0.717415   -0.112528   -0.668779
H      0.452719   -0.875628    2.091934
H     -0.244749    0.722416    1.660743
H     -1.769790   -1.977455    1.642683
H     -1.794844   -0.797802    2.969720
H     -2.679018    1.516222    2.613927
H     -4.979068   -0.179169   -1.438026
H     -3.094465   -3.396141   -1.848599
H     -4.686584   -2.611232   -1.531537
H     -3.424724   -1.761316   -2.533857
H     -6.149463    3.043039   -0.288843
H     -4.097167    3.501989    2.492459
H      4.224558   -3.423777   -0.606926
H      4.416308   -2.887450    1.123154
H      5.867122   -3.258803    0.118717
