41

C      3.494175    1.327209    0.461870
C      4.432014    0.162263    0.108082
C      3.611043   -1.115785   -0.101952
C      2.477144   -0.844757   -1.108568
C      1.675038    0.402304   -0.690312
O      2.525732    1.532925   -0.551907
O      0.960149    0.144524    0.509540
C     -0.101811    1.065326    0.681366
C     -1.419699    0.449926    0.190672
C     -2.598746    1.441465    0.366111
C     -3.931272    0.684393    0.609162
C     -3.932322   -0.675078   -0.116736
C     -2.675446   -1.513628    0.273216
O     -1.674715   -0.737892    0.917302
O     -3.051242   -2.543772    1.148936
O     -3.941978   -0.473110   -1.508017
O     -4.113319    0.462431    1.985359
O     -2.699732    2.238385   -0.786898
O      1.612254   -1.949727   -1.177888
O      4.454454   -2.129262   -0.586261
O      5.355939   -0.042251    1.144828
H      4.099753    2.253773    0.551071
H      3.014072    1.164576    1.453102
H      4.970765    0.404852   -0.838781
H      3.170980   -1.420177    0.878714
H      2.921088   -0.643877   -2.113454
H      0.971005    0.607081   -1.530385
H      0.078457    2.047246    0.181831
H     -0.188628    1.279469    1.768219
H     -1.289280    0.217931   -0.893627
H     -2.403657    2.099321    1.246964
H     -4.786881    1.289567    0.225648
H     -4.855467   -1.232440    0.171573
H     -2.227243   -1.975088   -0.640497
H     -3.501821   -3.238925    0.600981
H     -4.860496   -0.185779   -1.752610
H     -4.413560    1.323185    2.379107
H     -3.239986    3.034488   -0.541185
H      2.023578   -2.600526   -1.804563
H      4.031188   -2.995508   -0.349531
H      6.028474    0.684941    1.075835
