36

C     -1.600236    0.767109    2.083731
C     -1.922899    0.326458    0.677583
C     -3.265440    0.198767    0.271880
C     -3.555412   -0.236691   -1.033028
C     -2.531366   -0.564265   -1.929035
C     -1.183449   -0.466517   -1.521379
C     -0.885890   -0.026484   -0.209183
O      0.379996    0.055890    0.195091
C      1.421817   -0.253931   -0.571841
C      1.203455   -0.681345   -1.889943
C     -0.102175   -0.790677   -2.366835
O     -0.287334   -1.176920   -3.552647
C      2.787907   -0.119298   -0.005757
C      3.013797    0.785495    1.047748
C      4.288387    0.924869    1.604682
C      5.354614    0.155268    1.124086
C      5.138393   -0.756105    0.087225
C      3.865279   -0.898141   -0.473413
O      6.628990    0.285886    1.671288
O     -2.861880   -0.989837   -3.216684
O     -4.285310    0.509881    1.187893
C     -5.679375    0.423600    0.910420
H     -1.591829   -0.117177    2.754475
H     -2.349833    1.497338    2.454668
H     -0.610525    1.268005    2.133528
H     -4.580590   -0.329685   -1.364190
H      2.029547   -0.904409   -2.552765
H      2.205984    1.394865    1.434200
H      4.445683    1.631255    2.409866
H      5.957319   -1.361405   -0.280447
H      3.726901   -1.635267   -1.252503
H      6.817533    0.936927    2.424612
H     -3.824690   -1.066565   -3.523499
H     -5.946187    1.107925    0.077561
H     -6.247619    0.726182    1.813658
H     -5.953562   -0.621003    0.651966
