23

C     -3.568784   -0.721023    0.306898
O     -2.787773    0.262286   -0.363421
C     -1.383093    0.369118   -0.359415
C     -0.517994   -0.586300    0.239108
C      0.888680   -0.344034    0.263309
C      1.401374    0.785404   -0.426242
C      0.539381    1.675718   -1.060198
C     -0.840763    1.485098   -1.008762
O     -1.693695    2.407891   -1.613669
O      2.709323    1.022635   -0.471896
C      3.600875    0.250021    0.132834
C      3.188469   -0.850436    0.876630
C      1.826915   -1.142189    0.966737
O      1.470631   -2.092592    1.711035
O     -1.071445   -1.762699    0.750124
H     -4.641993   -0.467161    0.188331
H     -3.400881   -1.720277   -0.146274
H     -3.331225   -0.728969    1.391626
H      0.945352    2.537213   -1.576422
H     -1.337711    3.226104   -2.094146
H      4.653826    0.486119    0.055960
H      3.920635   -1.457958    1.394774
H     -0.570104   -2.633969    0.843078
