37

C      1.275117   -0.706986    1.842912
C      1.455493   -0.701400    0.315890
C      2.927426   -0.496936    0.022761
C      3.418105    0.628535   -0.519198
C      2.493766    1.681144   -0.954272
O      2.952909    2.766892   -1.399329
C      1.037776    1.456316   -0.910420
C      0.541066    0.359646   -0.298081
C     -0.918884    0.044353   -0.266197
C     -1.318178   -1.311420   -0.329206
C     -2.696932   -1.635615   -0.237800
C     -3.644317   -0.611540   -0.143062
C     -3.247713    0.731501   -0.050944
C     -1.889075    1.046354   -0.087447
O     -4.169199    1.779818    0.093697
C     -5.581681    1.608841    0.150625
O     -3.171834   -2.948876   -0.198553
C     -0.243108   -2.327232   -0.490931
O     -0.481103   -3.467624   -0.965892
O      1.083659   -1.981438   -0.204384
O      0.189075    2.359799   -1.552512
O      4.795455    0.838810   -0.704861
C      5.818572   -0.082051   -0.337054
H      1.564023    0.277469    2.271176
H      1.907502   -1.495764    2.304817
H      0.219539   -0.914673    2.119118
H      3.599277   -1.286545    0.332590
H     -4.691108   -0.879828   -0.093544
H     -1.599020    2.078790    0.053042
H     -5.947625    1.139124   -0.786765
H     -5.855473    0.981854    1.025338
H     -6.062791    2.602111    0.261475
H     -2.588848   -3.757003   -0.037686
H      0.540241    3.176374   -2.037850
H      5.693365   -1.034779   -0.893684
H      5.788326   -0.269902    0.757066
H      6.806197    0.351879   -0.595157
