25

C      2.249237    0.179786   -0.896631
C      1.587332    0.372011    0.472894
C      1.642838   -0.922955    1.296543
C      0.155254    0.958262    0.382015
C     -0.879647    0.107678   -0.413776
C     -0.750462    0.334312   -1.898482
O     -0.826564    1.500572   -2.369091
O     -0.590916   -0.738896   -2.771821
N     -2.262896    0.442186   -0.024980
C     -2.708572   -0.323357    1.142956
H      2.153898    1.104037   -1.505262
H      1.792611   -0.670425   -1.444037
H      3.330789   -0.036998   -0.764688
H      2.197774    1.124459    1.020778
H      1.121095   -0.787338    2.267727
H      1.180227   -1.772045    0.752469
H      2.700802   -1.187399    1.508735
H      0.212301    1.982576   -0.047891
H     -0.206878    1.101821    1.422127
H     -0.694033   -0.970414   -0.222706
H     -0.543581   -1.693130   -2.435572
H     -2.342083    1.464068    0.191692
H     -2.047840   -0.147659    2.018110
H     -2.731097   -1.408323    0.904842
H     -3.739593   -0.012831    1.414051
