15

C     -2.045171   -0.480527   -0.275002
C     -0.634389    0.002336   -0.071013
C     -0.436706    1.283181    0.293848
N      0.838569    1.806409    0.678364
C      0.472043   -0.968206   -0.230107
O      0.277389   -2.185787    0.033853
O      1.709390   -0.559248   -0.732005
O      2.720836   -1.426833   -0.887439
H     -2.065581   -1.365575   -0.945917
H     -2.485685   -0.761393    0.704561
H     -2.671899    0.309196   -0.742729
H     -1.287197    1.953066    0.348646
H      0.931975    2.829768    0.861205
H      1.643781    1.194333    0.932099
H      3.032646   -1.630721    0.031635
