48

C      2.713765   -2.125317   -0.536010
C      1.471290   -1.306426   -0.302339
C      0.310080   -1.955139    0.159313
C     -0.851812   -1.213254    0.394270
C     -0.887291    0.137534    0.150725
C      0.262599    0.818315   -0.258748
C      1.450483    0.102058   -0.511791
C      2.644112    0.839426   -0.995939
O      3.333897    0.359735   -1.936202
C      3.012317    2.188381   -0.430160
C      4.504062    2.289481   -0.086377
C      4.884322    1.336493    1.005377
O      4.563581    1.582818    2.198859
O      5.568601    0.165310    0.696586
C     -2.215731    0.738986    0.481929
C     -3.031793   -0.455953    1.046349
C     -2.127375   -1.723552    0.985056
C     -1.875294   -2.282087    2.398951
C     -2.742045   -2.813832    0.087369
C     -2.940893    1.433554   -0.715018
C     -2.361703    2.820917   -1.031305
C     -2.983614    0.576733   -1.992119
H      2.623117   -3.139792   -0.092515
H      2.887906   -2.237134   -1.626348
H      3.591074   -1.634389   -0.066366
H      0.314487   -3.020424    0.353361
H      0.238163    1.891040   -0.378057
H      2.761261    2.965735   -1.182980
H      2.421422    2.403730    0.486761
H      5.120304    2.092572   -0.990290
H      4.727524    3.325533    0.247992
H      5.819346   -0.496304    1.421475
H     -2.068849    1.477639    1.301408
H     -3.334189   -0.223614    2.092110
H     -3.981240   -0.610347    0.488522
H     -1.397298   -1.512836    3.043933
H     -1.208007   -3.169660    2.360976
H     -2.834979   -2.588199    2.868142
H     -3.740399   -3.112376    0.473050
H     -2.094167   -3.716147    0.064916
H     -2.859525   -2.449861   -0.954331
H     -3.994095    1.609444   -0.400198
H     -3.085471    3.394980   -1.648717
H     -1.419876    2.744086   -1.611038
H     -2.178032    3.396697   -0.099608
H     -3.524366    1.120348   -2.796068
H     -3.526525   -0.371375   -1.811304
H     -1.959144    0.346473   -2.353603
