37

C     -2.487506   -2.370316   -0.726112
C     -2.363655   -1.750120    0.641011
C     -1.465439   -0.777159    0.902423
C     -0.479933   -0.213734   -0.102606
C     -0.580641    1.355400   -0.109988
C      0.571478    2.035380   -0.924995
C      1.883548    1.428620   -0.541386
C      3.195304    1.850826   -0.734727
N      4.056586    0.873322   -0.342120
C      3.286562   -0.153366    0.070323
C      3.670988   -1.424283    0.495553
C      2.645065   -2.354293    0.781311
C      1.279401   -1.996825    0.628276
C      0.929839   -0.688163    0.219655
C      1.974878    0.170923   -0.050004
N     -1.907816    1.746747   -0.622766
C     -2.271078    3.114620   -0.244086
C     -3.268813   -2.233669    1.707387
O     -3.223905   -1.759995    2.874426
H     -3.235249   -3.191221   -0.733122
H     -2.814964   -1.604133   -1.460253
H     -1.512846   -2.800334   -1.040082
H     -1.396850   -0.380177    1.908966
H     -0.702996   -0.557781   -1.133500
H     -0.474058    1.694246    0.947677
H      0.416359    1.879410   -2.013894
H      0.605101    3.124958   -0.716421
H      3.501472    2.796625   -1.161817
H      5.099191    0.899867   -0.391948
H      4.714790   -1.696452    0.581984
H      2.904186   -3.356053    1.098067
H      0.512676   -2.737267    0.814692
H     -1.922340    1.672472   -1.667048
H     -1.607839    3.855899   -0.737783
H     -3.313778    3.315822   -0.567532
H     -2.227579    3.241201    0.858936
H     -3.990135   -3.010999    1.491502
