39

C     -0.165519    1.288837    2.175923
C     -1.308928    0.657906    1.415595
C     -2.567271    0.900231    1.828887
C     -3.733967    0.301625    1.160930
O     -4.890276    0.537549    1.600886
C     -3.559347   -0.619531   -0.010913
C     -2.220745   -0.351189   -0.751016
C     -1.042291   -0.377661    0.313795
C      0.310618   -0.103066   -0.351739
C      1.464692   -0.609584    0.110562
C      2.783560   -0.288704   -0.490518
C      3.866388   -0.323587    0.313284
C      5.246198    0.040169   -0.072786
O      6.195514   -0.274403    0.693153
O      5.518492    0.761908   -1.231349
C      2.882458    0.038615   -1.961815
O     -1.024321   -1.636061    0.957413
C     -2.041824   -1.446574   -1.831633
C     -2.322405    1.017316   -1.486574
H      0.477808    1.869397    1.482587
H     -0.517246    1.987139    2.965508
H      0.439380    0.495997    2.662966
H     -2.751270    1.575246    2.656598
H     -4.420037   -0.503454   -0.706403
H     -3.586567   -1.663267    0.371217
H      0.354220    0.617773   -1.153518
H      1.449577   -1.230450    0.998781
H      3.734352   -0.630080    1.345595
H      6.468037    1.017705   -1.474460
H      1.976901   -0.292817   -2.511078
H      3.004807    1.133440   -2.098549
H      3.733086   -0.503326   -2.425387
H     -0.669466   -2.315294    0.327174
H     -1.063014   -1.344182   -2.346183
H     -2.841017   -1.367105   -2.600375
H     -2.108205   -2.466150   -1.398164
H     -2.301839    1.871744   -0.779480
H     -1.500623    1.152980   -2.218992
H     -3.269911    1.080909   -2.064004
