20

C     -0.280749    0.494389   -0.584824
C     -1.772462    0.138388   -0.691657
C     -2.201566   -0.728742    0.458264
O     -2.220748   -0.267793    1.631685
O     -2.562219   -2.052906    0.228745
N     -2.602562    1.344024   -0.739756
O      0.491398   -0.682420   -0.639827
N      1.789058   -0.304003   -0.493948
C      2.430001   -0.367610    0.783270
O      1.782727   -0.745466    1.796019
N      3.802973   -0.003712    0.915507
H     -0.098704    1.040508    0.370137
H     -0.010408    1.160881   -1.435583
H     -1.928773   -0.430462   -1.635526
H     -2.846815   -2.653747    0.993060
H     -2.375463    1.871187   -1.614367
H     -2.363983    1.966199    0.067358
H      2.344229   -0.042268   -1.339776
H      4.273745   -0.049280    1.846413
H      4.350322    0.312830    0.084806
