26

C     -4.520873    0.337019    0.068567
C     -3.466054   -0.481572    0.748485
O     -3.830571   -1.439618    1.482463
C     -2.015117   -0.203822    0.569165
C     -1.492250    0.239811   -0.662274
C     -0.123381    0.494651   -0.777039
C      0.703779    0.292008    0.331795
O      0.186546   -0.144652    1.475294
C     -1.109397   -0.393990    1.635909
O     -1.515742   -0.789405    2.761253
C      2.181945    0.530393    0.237537
C      2.894541   -0.721155   -0.278575
C      4.368910   -0.485180   -0.365736
O      5.109638   -0.744459    0.620175
O      4.915600    0.062600   -1.521917
O     -2.317925    0.404210   -1.774054
H     -4.168664    1.379644   -0.079818
H     -4.773904   -0.116942   -0.912010
H     -5.438339    0.368321    0.693660
H      0.292902    0.832131   -1.718496
H      2.383896    1.389484   -0.440115
H      2.571748    0.793578    1.245336
H      2.510222   -0.984907   -1.287971
H      2.696199   -1.577561    0.403049
H      5.909886    0.243701   -1.590954
H     -1.953595    0.715710   -2.666874
