24

C      0.054575   -0.700822    0.697605
C     -1.382865   -0.964532    1.147980
C     -2.339083   -0.866747   -0.052336
C     -2.094265    0.374922   -0.881468
C     -0.924738    1.037217   -0.866067
C      0.187094    0.724920    0.118249
C      1.557156    0.934155   -0.557905
C      2.690507    0.845413    0.429814
O      2.922612    1.826783    1.185566
C      3.515078   -0.367815    0.555673
O      3.297050   -1.372626   -0.171425
O      4.544845   -0.411447    1.487290
O     -3.675687   -0.917404    0.376448
H      0.344712   -1.456984   -0.065586
H      0.729967   -0.816151    1.572689
H     -1.665587   -0.224371    1.929128
H     -1.451373   -1.980320    1.594065
H     -2.159952   -1.743950   -0.710952
H     -2.857358    0.680639   -1.591309
H     -0.821737    1.907541   -1.508328
H      0.092094    1.452759    0.954875
H      1.589826    1.944848   -1.021381
H      1.692888    0.199376   -1.381287
H     -3.845757   -0.105406    0.923145
