40

C      0.755004    4.183573    0.144670
C      0.193299    2.970447   -0.521043
O      0.073149    2.948045   -1.775816
N     -0.212131    1.846834    0.272727
C     -0.730103    0.600570   -0.303951
C     -2.245363    0.491995   -0.015865
C     -2.660032   -0.984124    0.100879
C     -1.835083   -1.659953    1.236328
O     -0.556018   -1.068369    1.456366
C      0.047484   -0.624026    0.254995
O      1.390857   -0.270487    0.544664
C      2.229783   -0.391110   -0.594905
C      3.359951    0.647012   -0.509976
C      4.135302    0.549883    0.770245
O      5.190890   -0.134541    0.822515
O      3.673268    1.190042    1.913075
C      2.791403   -1.784362   -0.688216
O      3.007435   -2.459103    0.353445
O      3.116715   -2.316884   -1.929149
C     -1.690773   -3.175440    1.029498
O     -2.951808   -3.785591    1.049212
O     -4.030712   -1.082612    0.396643
O     -2.958929    1.120874   -1.050470
H     -0.026395    4.654093    0.776960
H      1.101940    4.920250   -0.610902
H      1.615397    3.891772    0.782812
H     -0.170520    1.932920    1.314077
H     -0.579715    0.599126   -1.406442
H     -2.468159    0.991977    0.958564
H     -2.442578   -1.491760   -0.870413
H     -2.399850   -1.517999    2.184632
H      0.015573   -1.455230   -0.493198
H      1.682643   -0.172621   -1.542200
H      4.048518    0.528029   -1.375621
H      2.919968    1.665083   -0.579469
H     -1.186338   -3.387668    0.061085
H     -1.065671   -3.594101    1.849830
H     -2.790563   -4.755746    0.916042
H     -4.518894   -1.031443   -0.466312
H     -3.828944    1.410648   -0.669993
