42

C     -0.897816   -1.626425    3.300048
O     -1.433631   -1.099473    2.090719
C     -0.670978   -0.520018    1.061764
C     -1.329797   -0.042070   -0.087843
C     -0.587020    0.552427   -1.126501
C      0.809921    0.668945   -1.021504
C      1.470279    0.216860    0.140569
C      0.725036   -0.387802    1.163520
C      2.930490    0.400672    0.321964
C      3.522956    1.660073    0.119180
C      4.900141    1.828319    0.292006
C      5.696035    0.745156    0.673155
C      5.115765   -0.508040    0.884865
C      3.738991   -0.681375    0.713295
O      1.525687    1.230352   -2.083940
C      2.349859    0.442402   -2.935282
O     -1.246164    1.001491   -2.273863
C     -2.801803   -0.169109   -0.207491
C     -3.414831   -1.430896   -0.128192
C     -4.803454   -1.548957   -0.240105
C     -5.593433   -0.411060   -0.432325
C     -4.987896    0.850200   -0.512650
C     -3.599482    0.971117   -0.400995
O     -6.975745   -0.543728   -0.542065
H     -1.726550   -2.028706    3.917805
H     -0.188865   -2.451333    3.076148
H     -0.385633   -0.824401    3.872318
H      1.238103   -0.726243    2.053824
H      2.918567    2.513160   -0.163072
H      5.349976    2.799886    0.133428
H      6.761943    0.877384    0.806518
H      5.733314   -1.346313    1.180480
H      3.306176   -1.661444    0.872039
H      1.738714   -0.341140   -3.430939
H      3.167460   -0.036927   -2.359291
H      2.796910    1.094601   -3.712989
H     -0.756251    1.429970   -3.049807
H     -2.816861   -2.323142    0.011764
H     -5.265973   -2.525883   -0.179214
H     -5.591741    1.736620   -0.659487
H     -3.147025    1.953702   -0.456127
H     -7.575372    0.261149   -0.681728
