49

C     -1.671102   -3.744553   -0.841014
N     -1.317603   -2.383199   -0.403501
C     -0.501090   -2.456191    0.829217
C      0.166143   -1.118419    1.195595
C      1.004452   -0.422698    0.067519
C      0.725215   -0.895570   -1.356898
O      1.412562   -1.767690   -1.866784
C     -0.452606   -0.311825   -2.140188
C     -1.329939    0.653298   -1.284079
C     -2.308398   -0.043696   -0.299212
C     -3.200223    0.682381    0.428536
C     -3.310294    2.184343    0.434743
O     -4.458433    2.582791    1.133527
C     -2.541208   -1.563395   -0.265256
C     -0.380225    1.606271   -0.572721
C      0.726472    1.055007    0.073575
N      1.781032    1.819328    0.437283
C      1.771288    3.177482    0.306323
O      2.758775    3.874246    0.659723
C      0.648009    3.793267   -0.266361
C     -0.406176    3.001266   -0.750121
C      2.861693    0.923755    0.674880
C      4.172749    1.225821    1.060344
C      5.085198    0.167631    1.203234
C      4.682999   -1.160044    0.960690
C      3.364482   -1.442183    0.570876
C      2.471357   -0.378834    0.420878
H     -2.204826   -3.710763   -1.815172
H     -0.753548   -4.349835   -1.005151
H     -2.314418   -4.251936   -0.087938
H     -1.119956   -2.804539    1.686736
H      0.321016   -3.194762    0.694653
H      0.814160   -1.309925    2.079860
H     -0.614692   -0.438183    1.595872
H     -1.074333   -1.117182   -2.584565
H     -0.031488    0.260657   -2.995202
H     -1.952176    1.230125   -2.003074
H     -3.934797    0.158921    1.036692
H     -3.351042    2.577766   -0.604833
H     -2.431939    2.609242    0.959512
H     -5.231867    2.404062    0.536622
H     -3.237301   -1.772817   -1.108055
H     -3.078585   -1.871704    0.661254
H      0.620913    4.867395   -0.401683
H     -1.216367    3.472026   -1.290912
H      4.492461    2.238896    1.253993
H      6.104124    0.373748    1.504276
H      5.393017   -1.968008    1.080027
H      3.046518   -2.461778    0.396281
