24

C      0.418582   -0.137155   -0.789143
C      1.691148    0.671022   -0.489301
C      2.576757    0.009982    0.580830
N      3.840314    0.727001    0.738648
C     -0.611344   -0.065834    0.352824
C     -1.911587   -0.822960    0.014010
C     -2.649595   -0.149016   -1.114756
O     -2.719793   -0.709938   -2.240014
O     -3.244703    1.097548   -0.936827
N     -2.775891   -0.882468    1.193768
H     -0.034120    0.279960   -1.714358
H      0.684752   -1.197228   -0.994306
H      2.274247    0.754299   -1.432429
H      1.418405    1.701073   -0.171337
H      2.793824   -1.042122    0.294634
H      2.052475    0.000662    1.559282
H      3.635313    1.723056    0.984057
H      4.348899    0.722174   -0.175436
H     -0.168929   -0.523546    1.262669
H     -0.843153    0.996489    0.586837
H     -1.650728   -1.863706   -0.289022
H     -3.206205    1.577374   -0.045681
H     -2.286574   -1.435011    1.935280
H     -3.632095   -1.431657    0.947702
