34

C     -3.461371   -0.301486   -2.133614
C     -2.540641    0.293337   -1.061526
C     -2.621913   -0.540377    0.223787
C     -1.099573    0.424217   -1.603192
N     -0.230948    1.135974   -0.657305
C     -0.221532    2.488821   -0.556419
N      0.706345    2.963160    0.302455
C      1.293847    1.846283    0.761690
C      0.734536    0.720059    0.207191
C      1.210858   -0.568962    0.574054
C      0.664349   -1.796475    0.147355
C      1.223847   -3.008723    0.562052
C      2.323435   -3.024779    1.418072
C      2.862891   -1.827242    1.883098
C      2.315028   -0.603837    1.482558
N      2.842691    0.551409    1.986149
C      2.355971    1.777667    1.657424
N      2.940624    2.955073    2.216285
H     -4.503984   -0.361831   -1.754442
H     -3.122778   -1.321108   -2.417990
H     -3.462096    0.341577   -3.039518
H     -2.914023    1.314844   -0.826252
H     -3.646259   -0.473434    0.648409
H     -1.914926   -0.158695    0.989308
H     -2.406477   -1.609410    0.019877
H     -1.146162    1.025887   -2.538534
H     -0.667819   -0.530711   -1.941769
H     -0.876535    3.136028   -1.126242
H     -0.206391   -1.866370   -0.464368
H      0.793442   -3.943400    0.225511
H      2.748232   -3.968514    1.735066
H      3.704616   -1.851007    2.564453
H      3.740690    2.876956    2.882562
H      2.582027    3.905070    1.972663
