31

C      3.467168   -1.634299   -0.535491
C      2.809305   -0.324388   -0.200340
C      1.431466   -0.257259    0.029346
N      0.824520    0.934272    0.321533
C      1.571135    2.086023    0.338690
O      1.026055    3.201927    0.563365
N      2.911320    2.039888    0.106321
C      3.541826    0.867213   -0.162272
O      4.783853    0.861847   -0.381557
C     -0.637004    0.977139    0.536232
C     -1.374871    1.050732   -0.789188
C     -2.666310    0.335780   -0.495329
C     -2.316720   -0.565481    0.700565
O     -1.074193   -0.164972    1.241661
C     -2.227468   -2.045308    0.298121
O     -3.475889   -2.522371   -0.127359
O     -3.693421    1.244246   -0.172847
H      3.720543   -1.655498   -1.616076
H      2.799037   -2.492285   -0.308512
H      4.396715   -1.757776    0.059484
H      0.844744   -1.166278   -0.031805
H      3.466131    2.926387    0.126786
H     -0.913620    1.862482    1.152471
H     -1.532938    2.102187   -1.115316
H     -0.817990    0.499569   -1.579673
H     -2.987436   -0.246317   -1.387449
H     -3.090545   -0.469859    1.494555
H     -1.861665   -2.649466    1.159585
H     -1.495895   -2.166044   -0.529437
H     -4.025627   -2.648221    0.689722
H     -3.402228    1.776128    0.614209
