28

C     -0.594262   -1.566005    0.202515
C     -1.911547   -0.892607    0.490566
C     -2.019195    0.147157   -0.620672
O     -0.713320    0.511415   -0.996847
C      0.098975   -0.622294   -0.782450
N      1.429534   -0.214387   -0.285465
C      2.544946   -0.768721   -0.850827
C      3.816379   -0.422989   -0.400584
C      3.929847    0.490322    0.642986
O      5.067229    0.823369    1.071230
N      2.809961    1.019233    1.201058
C      1.570136    0.674040    0.754867
O      0.556221    1.176555    1.312823
F      4.918866   -0.971924   -0.970166
C     -2.796068    1.387152   -0.170601
O     -2.899226    2.289957   -1.236358
O     -2.966214   -1.817034    0.431288
H     -0.744786   -2.562257   -0.270733
H     -0.011544   -1.705139    1.140053
H     -1.862436   -0.412255    1.496949
H     -2.532845   -0.296514   -1.505103
H      0.196264   -1.144528   -1.762661
H      2.458715   -1.486258   -1.658340
H      2.901977    1.699899    1.989858
H     -2.268640    1.873413    0.681041
H     -3.815388    1.086654    0.160273
H     -3.405388    3.069583   -0.888564
H     -3.758192   -1.365837    0.823864
