21

C     -2.325578    0.749293   -0.155846
C     -0.814932    0.690898   -0.191248
C     -0.154332   -0.459607   -0.514752
C      1.348480   -0.480754   -0.747863
C      2.091504   -0.900042    0.489342
O      1.728738   -1.922934    1.128787
O      3.219391   -0.200872    0.910518
C     -0.869663   -1.756707   -0.674552
O     -0.431116   -2.624280   -1.477117
O     -1.993230   -2.053847    0.092098
C     -0.094661    1.943221    0.150234
O     -0.541540    3.055254   -0.240293
O      1.049202    1.910053    0.941944
H     -2.697823    1.793815   -0.204742
H     -2.696081    0.304888    0.791304
H     -2.760810    0.211424   -1.024762
H      1.602824   -1.192437   -1.561132
H      1.712979    0.504370   -1.107434
H      3.558806    0.608009    0.404065
H     -2.469634   -2.942569   -0.004649
H      1.537473    2.762824    1.187725
