39

C     -2.680830   -1.695655    1.206890
C     -2.046076   -1.512408   -0.188344
C     -0.720466   -2.305242   -0.298999
C      0.381707   -1.736010    0.620569
C      0.655307   -0.231516    0.389926
C     -0.650785    0.518260    0.237674
C     -0.915862    1.744425    0.683974
C     -2.288799    2.190264    0.307623
C     -2.923952    0.968806   -0.368674
C     -1.773732   -0.034877   -0.570764
C      0.047463    2.608387    1.445256
C      1.509514   -0.023316   -0.845109
C      2.861030    0.033112   -0.834862
C      3.658358   -0.063568    0.441663
C      3.616034    0.182268   -2.130468
H     -3.762705   -1.452981    1.179521
H     -2.186054   -1.052563    1.964859
H     -2.602162   -2.754020    1.534616
H     -2.754242   -1.935876   -0.934393
H     -0.363373   -2.280006   -1.352016
H     -0.894750   -3.373117   -0.043846
H      1.315595   -2.320391    0.471112
H      0.082861   -1.889576    1.680024
H      1.179053    0.150989    1.289875
H     -2.861434    2.488242    1.212321
H     -2.224377    3.043764   -0.401317
H     -3.369641    1.253297   -1.346904
H     -3.735447    0.573715    0.272678
H     -1.470607    0.000063   -1.641468
H     -0.402941    3.603370    1.644482
H      0.295211    2.131445    2.416484
H      0.976207    2.750461    0.853379
H      0.994732    0.018781   -1.801761
H      3.431725    0.803647    1.096842
H      3.419603   -1.008169    0.973504
H      4.748337   -0.055646    0.228273
H      4.253574   -0.712220   -2.291191
H      4.263927    1.082411   -2.079855
H      2.937997    0.291450   -3.003968
