44

C     -4.158403    2.089011    0.592752
C     -4.055945    1.068659   -0.535138
C     -4.509295   -0.319044   -0.045641
C     -4.459599   -1.393647   -1.128991
C     -3.525574   -1.491464    0.071242
C     -2.036671   -1.322155   -0.269710
C     -1.303437   -0.653358    0.906171
C     -0.277494   -1.516777    1.637750
C      0.193153   -0.361311    0.761445
C      0.904769   -0.766793   -0.546064
C      2.438374   -0.882330   -0.364185
C      3.149235    0.470862   -0.073374
C      4.653819    0.254991    0.211924
C      5.355090    1.537147    0.663522
C      2.914188    1.490374   -1.169159
O      2.072017    2.408652   -0.985522
O      3.588842    1.431845   -2.387587
O      3.019529   -1.528153   -1.471653
H     -3.508826    1.795405    1.443175
H     -3.833559    3.085113    0.224807
H     -5.208453    2.167596    0.947060
H     -4.729844    1.390769   -1.358015
H     -3.022578    1.083131   -0.928603
H     -5.433631   -0.389009    0.567718
H     -3.995184   -1.083084   -2.090290
H     -5.310765   -2.106459   -1.099010
H     -3.812670   -2.274822    0.804998
H     -1.638437   -2.339021   -0.470665
H     -1.873119   -0.735284   -1.196380
H     -1.845714    0.071133    1.549094
H     -0.203231   -1.309677    2.725953
H     -0.098842   -2.533482    1.227060
H      0.516296    0.549379    1.306936
H      0.539606   -1.748014   -0.916097
H      0.664044   -0.017585   -1.329157
H      2.606551   -1.543682    0.514712
H      2.717793    0.878955    0.866005
H      5.175241   -0.151756   -0.679875
H      4.763323   -0.495591    1.025191
H      4.852891    1.957822    1.560515
H      6.410635    1.310184    0.922947
H      5.350320    2.293381   -0.149335
H      4.269666    0.712714   -2.593976
H      2.685889   -1.084627   -2.294204
