28

C     -1.064645    0.484632   -0.452288
C     -1.782037    0.514450    0.908896
C     -3.312866    0.578227    0.769864
C     -3.927835   -0.698471    0.187301
O     -3.629983   -1.797525    1.003407
C      0.451129    0.705399   -0.326834
C      1.167266   -0.482474    0.333877
C      2.654440   -0.275092    0.355489
C      3.389186   -0.364552   -0.758823
C      4.848989   -0.180108   -0.758727
O      5.471159    0.077052    0.307607
O      5.548502   -0.291413   -1.955698
H     -1.251807   -0.483957   -0.963336
H     -1.475351    1.292961   -1.096074
H     -1.454736    1.416150    1.471202
H     -1.501543   -0.376152    1.510079
H     -3.595006    1.444329    0.132443
H     -3.752042    0.752887    1.776277
H     -5.031469   -0.567134    0.133280
H     -3.552479   -0.872306   -0.844663
H     -4.047384   -2.585159    0.567241
H      0.858532    0.852642   -1.350914
H      0.651253    1.635224    0.249882
H      0.819319   -0.588543    1.382790
H      0.931260   -1.426176   -0.205118
H      3.129680   -0.079613    1.309582
H      2.904725   -0.583035   -1.703085
H      6.553742   -0.168781   -1.983657
