18

C      0.056467    1.417604    1.147822
N     -0.109568    0.061564    0.616095
C      1.050255   -0.841915    0.615557
C      1.935889   -0.581338   -0.565648
O      3.139715   -0.951388   -0.535299
O      1.427940    0.026208   -1.710806
C     -1.386045   -0.341223    0.062557
N     -1.462584   -1.268526   -0.842191
N     -2.594718    0.296038    0.487894
H     -0.326744    2.160474    0.416414
H     -0.492588    1.517645    2.107017
H      1.127420    1.645562    1.337640
H      1.635389   -0.696722    1.550082
H      0.724384   -1.903631    0.614742
H      2.018272    0.190895   -2.517285
H     -0.633413   -1.768840   -1.229257
H     -3.508857    0.024760    0.061698
H     -2.601213    1.012834    1.245281
