30

C      4.898742   -0.577960    2.285675
C      3.602080   -0.885525    2.957624
O      3.607540   -1.451235    4.091068
N      2.365460   -0.649191    2.240005
C      1.173524   -0.407409    1.502245
C      1.268002    0.111186    0.195970
C      0.096811    0.297092   -0.546678
C     -1.137170   -0.036766   -0.018011
C     -1.266573   -0.569935    1.264889
C     -0.101901   -0.757453    2.027266
C     -2.148004    0.229415   -1.018508
C     -3.531844    0.041824   -0.965141
C     -4.287327    0.367890   -2.103105
C     -3.652115    0.864594   -3.263321
C     -2.256139    1.043021   -3.292780
C     -1.519497    0.721734   -2.150160
C     -0.031590    0.820857   -1.951138
H      4.803094    0.357860    1.698379
H      5.705583   -0.450980    3.040338
H      5.166665   -1.408412    1.599083
H      1.989077   -0.223330    3.122797
H      2.232455    0.360418   -0.228438
H     -2.236699   -0.843759    1.661925
H     -0.181970   -1.186615    3.018807
H     -4.011414   -0.347039   -0.073366
H     -5.361952    0.233135   -2.092318
H     -4.240909    1.107619   -4.139128
H     -1.767056    1.423471   -4.183349
H      0.515304    0.173151   -2.668969
H      0.307826    1.876259   -2.011659
