14

C     -0.121906    0.921035    0.700867
C     -1.476725    1.260715    0.666144
N     -2.341751    0.541430   -0.096140
C     -1.924569   -0.516916   -0.839465
C     -0.578550   -0.891299   -0.834149
C      0.341241   -0.167581   -0.056101
C      1.772055   -0.542033   -0.031859
O      2.188003   -1.519326   -0.711380
O      2.674029    0.182713    0.743009
H      0.553726    1.504600    1.313458
H     -1.840639    2.097980    1.246610
H     -2.638482   -1.069183   -1.435882
H     -0.262433   -1.737000   -1.431984
H      3.656002   -0.065136    0.766871
