30

C     -1.890752    0.791844    1.632234
C     -1.239121    1.554628    0.472792
C     -2.063965    1.298663   -0.819954
N     -2.911215    0.074505   -0.760135
C     -2.367466   -1.072258    0.020407
C     -1.520955   -0.647022    1.253153
C     -0.107869   -0.458907    0.815745
C      0.922995   -1.397695    0.746003
C      2.156657   -0.988927    0.212195
N      3.196769   -1.859549    0.129630
C      4.392410   -1.477166   -0.392260
C      4.559900   -0.168736   -0.856026
N      3.525760    0.710531   -0.781331
C      2.326882    0.340869   -0.259153
C      1.262685    1.255893   -0.194555
C      0.056486    0.824996    0.360674
H     -2.986593    0.961599    1.715329
H     -1.419305    1.075057    2.601509
H     -1.099041    2.635365    0.691318
H     -2.720799    2.180681   -0.989505
H     -1.389700    1.247611   -1.705539
H     -3.842195    0.336246   -0.357916
H     -3.096728   -0.248482   -1.738377
H     -1.771470   -1.734774   -0.648444
H     -3.216654   -1.692906    0.383467
H     -1.609791   -1.354746    2.105562
H      0.769311   -2.413363    1.088214
H      5.208596   -2.184882   -0.448478
H      5.506855    0.145104   -1.274308
H      1.368314    2.265823   -0.570310
