17

C      3.286930    0.753121    0.099812
O      2.333272   -0.239500    0.438738
N      0.990926    0.062911    0.453608
C      0.116283   -0.840016    0.761310
C     -1.351054   -0.513823    0.779899
C     -1.852689   -0.111790   -0.617516
O     -3.228264    0.157336   -0.585099
O     -1.623810    0.488880    1.727147
H      3.094971    1.123077   -0.929227
H      4.304865    0.314598    0.145283
H      3.221500    1.597890    0.817244
H      0.440265   -1.843451    1.011563
H     -1.896293   -1.431570    1.089521
H     -1.638260   -0.924020   -1.349801
H     -1.322909    0.801740   -0.963329
H     -3.688784   -0.721209   -0.541921
H     -1.186950    1.325825    1.418394
