14

C     -1.303336   -0.253093   -0.009696
C      0.194530   -0.591387    0.071005
C      0.896503   -0.187787   -1.200107
O      1.125581   -1.052096   -2.086795
O      1.263911    1.136146   -1.431090
N      0.811623    0.065571    1.224282
O     -1.508739    1.127848   -0.151963
H     -1.828962   -0.633504    0.896240
H     -1.750188   -0.770352   -0.885836
H      0.290119   -1.694838    0.194659
H      1.082564    1.863033   -0.749589
H      1.810531   -0.240930    1.280908
H      0.350447   -0.292078    2.092582
H     -1.434584    1.523466    0.755399
