13

C     -0.091877   -1.215904    0.050927
C      0.660057   -0.037632    0.006422
N      0.023648    1.166405   -0.049326
C     -1.336411    1.236056   -0.062224
O     -1.912240    2.354672   -0.113904
N     -2.077309    0.098051   -0.019348
C     -1.482091   -1.120853    0.036730
N      2.088622   -0.095769    0.019334
H      0.389048   -2.184914    0.095564
H      0.584237    2.048196   -0.082647
H     -2.088845   -2.015867    0.070276
H      2.655965    0.780127   -0.013690
H      2.587195   -1.012566    0.061886
