12

C      0.841662   -0.918955   -0.097570
N     -0.234152   -0.115745    0.507732
C      0.079789    1.314690    0.417683
N     -1.455257   -0.347891   -0.165329
H      1.013877   -0.635198   -1.159782
H      1.785515   -0.777435    0.471399
H      0.581140   -1.997882   -0.050596
H      1.016617    1.535600    0.973100
H     -0.735966    1.907893    0.883799
H      0.197876    1.636268   -0.641263
H     -1.318819   -0.283335   -1.202785
H     -1.772283   -1.318009    0.063612
