20

C      0.457280   -0.981004    0.479019
C     -0.450187   -0.237563   -0.293366
C      0.028462    0.798260   -1.112229
C      1.401516    1.073967   -1.174549
C      2.298073    0.319286   -0.411361
C      1.830447   -0.705722    0.417203
O      2.736876   -1.443040    1.175762
O      1.883923    2.095780   -1.989313
C     -1.926194   -0.510349   -0.202883
C     -2.545444    0.352556    0.853188
O     -3.058954    1.458523    0.539092
O     -2.521392   -0.036256    2.189365
H      0.098493   -1.771185    1.127234
H     -0.664065    1.389825   -1.698695
H      3.358719    0.532248   -0.459071
H      2.430957   -2.191603    1.786465
H      1.261200    2.661494   -2.554176
H     -2.412774   -0.313283   -1.183266
H     -2.108321   -1.579853    0.038862
H     -2.098617   -0.912080    2.472716
