24

C     -2.959082   -0.493786   -0.377544
C     -1.716126    0.179450    0.231333
C     -0.428033   -0.605577   -0.127605
C      0.840981    0.006073    0.527905
C      2.090451   -0.768664    0.147923
O      2.175994   -1.944643    0.470118
C      3.241951   -0.131604   -0.580935
O      3.825605    0.849732    0.228997
O      0.966969    1.381757    0.253806
O     -0.265562   -0.727373   -1.521986
O     -1.853678    0.231605    1.629257
O     -4.118483    0.225316   -0.053895
H     -3.059445   -1.524001    0.026287
H     -2.861007   -0.571165   -1.484174
H     -1.631783    1.212241   -0.182761
H     -0.543935   -1.634944    0.279553
H      0.734141   -0.093067    1.629959
H      2.878158    0.317556   -1.530952
H      4.002945   -0.903863   -0.834475
H      4.555917    1.251938   -0.309313
H      1.008572    1.500859   -0.729095
H     -0.362058    0.173665   -1.925255
H     -2.406353    1.029689    1.837602
H     -4.116138    1.038807   -0.623137
