37

C     -2.072763   -2.805083    0.991949
C     -2.133708   -1.385911    0.505580
C     -1.086606   -0.610129    0.204426
C      0.335601   -0.957897    0.593864
C      1.377416   -0.612810   -0.480220
C      1.517648    0.908509   -0.681952
C      0.347284    1.490950   -1.475354
C     -0.875524    1.774177   -0.631720
C     -1.569340    0.769238   -0.049551
C     -3.032373    0.850368    0.284983
C     -3.340162   -0.574184    0.543657
O     -4.490687   -1.012120    0.809806
C     -1.449714    3.175965   -0.700524
O     -0.454836    4.127690   -0.435553
C      2.727316   -1.218612   -0.110422
C      3.282719   -2.161474   -0.888532
C      3.462238   -0.784310    1.133601
H     -1.431073   -3.412226    0.319469
H     -1.665078   -2.831164    2.024196
H     -3.086227   -3.257729    0.996271
H      0.421858   -2.044403    0.805595
H      0.569170   -0.430838    1.543578
H      1.034277   -1.068883   -1.437145
H      1.623875    1.440542    0.288925
H      2.444931    1.103266   -1.266121
H      0.697025    2.430733   -1.955670
H      0.064687    0.817162   -2.313336
H     -3.627172    1.223416   -0.576331
H     -3.200659    1.454384    1.201780
H     -2.290186    3.329541    0.011152
H     -1.845521    3.348374   -1.723315
H     -0.252476    4.062741    0.534546
H      2.791326   -2.510071   -1.791595
H      4.242265   -2.600025   -0.630246
H      3.606175   -1.655150    1.807584
H      4.454683   -0.369511    0.857359
H      2.903608   -0.004527    1.689269
