13

C     -0.836246   -1.107069   -0.171063
C     -0.294093    0.260103   -0.593765
C      1.113435    0.117263   -1.107142
O      1.344560    0.230598   -2.339782
O      2.166154   -0.164825   -0.239795
N     -0.322224    1.186410    0.538164
H     -0.801036   -1.814935   -1.026940
H     -0.239349   -1.523825    0.668458
H     -1.893103   -1.011431    0.157106
H     -0.942495    0.658486   -1.407854
H      2.014071   -0.273124    0.755744
H      0.008455    2.121606    0.204849
H     -1.318129    1.320742    0.829305
