24

C      2.387581    0.318134   -0.806978
C      1.068654    0.241965   -0.023822
C      0.287092   -1.046482   -0.376625
C     -0.966733   -1.165303    0.525474
C     -1.456465    0.213766    1.025275
C     -1.070351    1.340427    0.030669
O      0.321449    1.428938   -0.267971
O     -1.782286    1.191717   -1.170668
O     -0.896978    0.483228    2.286842
O     -2.009036   -1.814914   -0.159032
O     -0.089613   -1.024293   -1.733203
O      3.136535    1.430573   -0.397057
H      2.174387    0.422927   -1.891903
H      2.980079   -0.614717   -0.663828
H      1.340034    0.204147    1.055088
H      0.932067   -1.935785   -0.174222
H     -0.700379   -1.774972    1.422095
H     -2.567431    0.184064    1.128958
H     -1.360583    2.312274    0.492350
H     -2.724397    1.443658   -0.983348
H     -1.433119    1.214649    2.691352
H     -1.748404   -2.769982   -0.237939
H      0.630484   -1.475697   -2.246186
H      3.547413    1.191679    0.474677
