18

C     -2.432164    0.686463   -0.050416
C     -2.415601   -0.708760   -0.134439
C     -1.200133   -1.399774   -0.130355
C      0.011317   -0.695757   -0.041790
C     -0.008261    0.716401    0.043159
C     -1.233399    1.400197    0.038272
C      1.205228    1.408251    0.131071
C      2.408064    0.701747    0.133725
C      2.389563   -0.693817    0.048356
O      3.474229   -1.334980    0.050532
N      1.203814   -1.360926   -0.037017
H     -3.376261    1.215788   -0.054036
H     -3.346974   -1.255913   -0.202894
H     -1.203774   -2.480747   -0.196085
H     -1.263316    2.481349    0.102734
H      1.223247    2.489567    0.197374
H      3.347774    1.236063    0.201701
H      1.216646   -2.405152   -0.099891
