25

C     -0.961553   -1.394231   -0.196519
C     -2.287175   -1.384700    0.244685
C     -3.040986   -0.204085    0.193059
C     -2.456932    0.974256   -0.302926
C     -1.128873    0.960393   -0.744641
C     -0.375636   -0.223979   -0.702906
C      1.064014   -0.229050   -1.150068
C      2.020866   -0.033396    0.039195
C      3.451966   -0.181870   -0.405562
O      3.945476    0.618387   -1.245690
O      4.232541   -1.211542    0.110690
N      1.804911    1.273030    0.667216
O     -3.178241    2.166202   -0.362696
O     -4.363506   -0.197340    0.633567
H     -0.390606   -2.313014   -0.142467
H     -2.727468   -2.295722    0.629648
H     -0.684234    1.874827   -1.118369
H      1.285881   -1.199042   -1.648233
H      1.230721    0.568004   -1.908451
H      1.808440   -0.824822    0.792634
H      5.196445   -1.327776   -0.178380
H      2.442592    1.358171    1.492334
H      2.058979    2.032646   -0.006297
H     -4.141228    2.228356   -0.054747
H     -4.806395   -1.033704    0.995837
