32

C     -2.134076    1.565957   -1.516184
N     -3.420273    1.088578   -1.492328
C     -3.781213    0.055500   -0.673310
C     -2.797408   -0.495244    0.140218
C     -1.537564   -0.005027    0.101862
N     -1.174790    1.014652   -0.713338
N     -0.762957   -0.691888    0.952357
C     -1.605304   -1.616801    1.480963
N     -2.878477   -1.523000    1.006287
C      0.678277   -0.575768    1.182005
C      1.459171   -1.293601    0.096291
C      2.756821   -0.526215    0.075829
C      2.327214    0.868501    0.553605
O      1.066120    0.779288    1.188181
C      2.238493    1.858574   -0.617195
O      1.785723    3.108234   -0.170983
O      3.673246   -1.087837    0.981971
O      1.639504   -2.648679    0.416748
N     -5.122513   -0.433371   -0.668358
H     -1.876602    2.382857   -2.176051
H     -1.296492   -2.365351    2.199225
H      0.928220   -1.008985    2.177812
H      0.941289   -1.186716   -0.886658
H      3.187252   -0.526629   -0.953774
H      3.065441    1.265460    1.285625
H      3.234004    1.964593   -1.106122
H      1.525818    1.475985   -1.378525
H      2.549765    3.536864    0.296167
H      4.554502   -0.676739    0.781938
H      2.021909   -3.078289   -0.392307
H     -5.840227   -0.001819   -1.291804
H     -5.404876   -1.223084   -0.046140
