18

C     -2.077656    1.068518    0.311760
C     -2.459004   -0.102950   -0.372911
C     -1.496408   -1.062401   -0.727858
C     -0.166222   -0.819971   -0.387299
C      0.212343    0.327093    0.280408
C     -0.730678    1.289623    0.645522
C      1.690474    0.330721    0.527889
C      2.055745   -0.984378   -0.097066
O      3.224814   -1.450485   -0.131633
N      0.935685   -1.668148   -0.649335
O      2.310855    1.381061   -0.160893
H     -2.826352    1.801325    0.583182
H     -3.498923   -0.265213   -0.624833
H     -1.780760   -1.966373   -1.250519
H     -0.432333    2.185864    1.173678
H      1.929879    0.337461    1.615135
H      0.928052   -2.595490   -1.129097
H      2.180488    2.193745    0.393870
