36

C      0.095197    3.808893   -0.175517
O     -0.013966    2.395435   -0.283637
C      1.029608    1.590360   -0.752845
O      2.122540    2.112775   -1.106248
C      0.874045    0.087053   -0.831913
C     -0.599029   -0.408658   -0.735640
C     -1.200934   -0.275624    0.691872
C     -2.715740   -0.020997    0.667578
C     -3.376446   -0.770172   -0.489327
C     -2.769679   -0.358948   -1.847948
N     -1.450586    0.287555   -1.718323
C      1.772773   -0.639161    0.157665
C      2.041520   -0.119106    1.441059
C      2.837597   -0.832507    2.341981
C      3.365357   -2.073816    1.980866
C      3.094756   -2.606837    0.718964
C      2.299360   -1.897986   -0.186120
H      0.291501    4.252423   -1.174552
H      0.917710    4.073852    0.522105
H     -0.857248    4.218128    0.219157
H      1.226678   -0.185791   -1.852560
H     -0.585852   -1.494949   -0.992430
H     -0.728805    0.548937    1.263296
H     -0.998447   -1.214065    1.253617
H     -3.165474   -0.344100    1.631226
H     -2.906907    1.068779    0.550114
H     -3.235457   -1.863007   -0.336235
H     -4.469645   -0.568920   -0.487815
H     -2.693843   -1.256693   -2.502310
H     -3.457763    0.357035   -2.346703
H     -0.991967    0.247472   -2.659055
H      1.637844    0.836585    1.748947
H      3.042438   -0.423621    3.322985
H      3.980098   -2.624914    2.680748
H      3.498091   -3.572529    0.442821
H      2.090676   -2.332878   -1.155823
