15

C     -1.844239    0.915465   -0.132283
C     -1.521861   -0.381141   -0.117999
C     -0.272760   -0.883829    0.556337
C      0.961741   -0.758480   -0.345741
C      1.391420    0.669074   -0.516027
O      1.149611    1.274484   -1.593307
O      2.036021    1.342131    0.517595
H     -1.207208    1.656355    0.340901
H     -2.758818    1.241825   -0.616444
H     -2.194489   -1.097818   -0.580024
H     -0.111369   -0.357124    1.522764
H     -0.419535   -1.960014    0.791027
H      0.755059   -1.218003   -1.337518
H      1.800425   -1.324461    0.113355
H      2.236003    0.881539    1.397364
