12

C     -0.949128   -0.871691   -0.301164
C     -0.226890    0.284248    0.396931
C      1.137368    0.502133   -0.203623
O      1.265572    1.175926   -1.260262
O      2.263448   -0.081009    0.370905
O     -0.992275    1.462982    0.346676
H     -0.366762   -1.810942   -0.185911
H     -1.077393   -0.658293   -1.384185
H     -1.950570   -1.019445    0.155732
H     -0.102422    0.011844    1.466904
H      2.193387   -0.652251    1.204461
H     -1.194334    1.656498   -0.606465
