27

C     -3.835820    0.840105   -0.224687
C     -2.513112    0.150629   -0.041817
C     -2.475838   -1.174288    0.186052
C     -1.158640   -1.894780    0.339521
O     -0.124478   -1.027044    0.769555
C     -0.002977    0.059053   -0.131167
C     -1.241790    0.965959   -0.004102
C      1.260227    0.829716    0.182534
C      2.503048    0.323020    0.015848
C      2.731756   -1.068091   -0.522160
C      3.709558    1.165983    0.339389
H     -4.342552    0.444902   -1.130267
H     -3.697613    1.935322   -0.345966
H     -4.480385    0.662863    0.662246
H     -3.392530   -1.757672    0.174408
H     -1.283074   -2.693828    1.099418
H     -0.883218   -2.388460   -0.618776
H      0.067959   -0.296618   -1.186512
H     -1.216425    1.515885    0.962195
H     -1.244616    1.705490   -0.834286
H      1.157760    1.849333    0.546956
H      2.288793   -1.821571    0.161405
H      3.817869   -1.283071   -0.610546
H      2.280377   -1.168099   -1.531281
H      4.355241    0.626429    1.063684
H      3.432173    2.145201    0.785298
H      4.288307    1.353631   -0.589168
