28

C     -3.696649    0.919392    0.536013
C     -3.730286   -0.449160    0.815420
C     -2.648494   -1.263166    0.465090
C     -1.516386   -0.709871   -0.155908
C     -1.500948    0.664457   -0.453946
C     -2.584457    1.474839   -0.101506
C     -0.388664   -1.585197   -0.537521
N     -0.550249   -2.827167   -1.031026
N      0.659565   -3.265454   -1.341114
N      1.600922   -2.374669   -1.072321
C      0.971748   -1.301684   -0.557546
C      1.682760   -0.113916   -0.040560
C      1.259598    0.529647    1.136134
C      1.954833    1.641611    1.621011
C      3.084676    2.110491    0.946089
C      3.525604    1.463329   -0.211014
C      2.832846    0.351164   -0.699684
H     -4.535163    1.547876    0.806826
H     -4.595387   -0.879948    1.302770
H     -2.689449   -2.322028    0.689552
H     -0.660657    1.108343   -0.972071
H     -2.564725    2.532720   -0.329456
H      0.849598   -4.206261   -1.750882
H      0.403247    0.164735    1.688468
H      1.621554    2.135445    2.524624
H      3.622557    2.970481    1.323631
H      4.405248    1.822789   -0.729184
H      3.186758   -0.138799   -1.598534
