14

C     -0.631492    0.804749   -0.567162
C      0.000393   -0.571853   -0.289237
C      1.491359   -0.520135   -0.489558
O      2.021789   -1.199243   -1.407952
O      2.300509    0.273117    0.321048
N     -0.298009   -1.045721    1.064587
O     -2.031297    0.718441   -0.540494
H     -0.268601    1.566133    0.161751
H     -0.327986    1.146008   -1.580306
H     -0.424418   -1.299319   -1.018114
H      1.914149    0.838335    1.066933
H     -0.122194   -0.280738    1.756176
H     -1.313796   -1.288231    1.120548
H     -2.310404    0.858457    0.401778
