30

C      2.727366    0.534794    0.701028
C      1.396947    0.456869    0.296016
N      1.062130   -0.115162   -0.902289
C      2.051199   -0.654160   -1.688837
O      1.772632   -1.226341   -2.777093
N      3.351205   -0.582321   -1.299893
C      3.710586    0.003183   -0.130180
N      5.087363    0.060075    0.243396
C     -0.359991   -0.213234   -1.293443
C     -1.038617   -1.394190   -0.575985
C     -2.089247   -0.727335    0.290716
C     -2.274295    0.617036   -0.398130
O     -1.040286    0.984405   -0.968597
C     -2.764796    1.709161    0.558873
O     -1.794417    1.984026    1.531809
O     -3.296074   -1.444623    0.327974
O     -1.597403   -2.302689   -1.497486
H      2.984734    0.995543    1.646455
H      0.633469    0.854187    0.952575
H      5.819013   -0.343910   -0.382491
H      5.382378    0.503830    1.141709
H     -0.443837   -0.337994   -2.396367
H     -0.320883   -1.949627    0.067740
H     -1.686312   -0.586747    1.321619
H     -3.022554    0.515295   -1.218001
H     -2.974754    2.632225   -0.026349
H     -3.709499    1.379172    1.046662
H     -2.179860    2.689934    2.113039
H     -3.135368   -2.231623    0.911233
H     -2.250828   -1.809781   -2.060629
