13

C     -1.153303   -0.704401   -0.301426
C     -1.140485    0.777828   -0.046324
O     -2.232859    1.404656   -0.021288
N      0.085927    1.497796    0.110221
C      1.331989    0.808762    0.200352
O      2.404623    1.458591    0.316580
N      1.360037   -0.617526    0.178559
C      0.154637   -1.372378    0.023141
O      0.196378   -2.628446    0.109005
H     -1.384598   -0.878347   -1.373397
H     -1.957554   -1.169107    0.308792
H      0.066333    2.539654    0.188824
H      2.268876   -1.117083    0.306960
