22

C      2.413573    0.228395   -0.707326
C      2.013914   -0.171311    0.718853
C      0.808180    0.616858    1.172371
O      0.964495    1.548763    2.006509
C     -0.528354    0.410749    0.584419
C     -1.251003   -0.768398    0.829074
C     -2.523707   -0.940482    0.275406
C     -3.086038    0.065758   -0.515019
C     -2.379266    1.248918   -0.747323
C     -1.106739    1.424867   -0.194761
N      1.769606   -1.612151    0.817961
H      3.322800   -0.329395   -1.016679
H      2.638381    1.315686   -0.749680
H      1.594856    0.003851   -1.424406
H      2.865060    0.081909    1.391131
H     -0.840795   -1.546346    1.460104
H     -3.076803   -1.851405    0.464572
H     -4.071496   -0.068635   -0.941930
H     -2.817879    2.030258   -1.354434
H     -0.568303    2.346050   -0.381873
H      1.174302   -1.924938    0.016348
H      2.685217   -2.109001    0.722059
