48

C      1.868767   -2.156727   -0.521501
C      2.053958   -0.773259    0.190767
C      1.357944   -0.816738    1.574474
C     -0.175500   -0.955776    1.431513
C     -0.815415    0.105848    0.484038
C     -0.055788    0.238260   -0.874024
C      1.454497    0.400677   -0.597553
C      2.395426    0.589431   -1.783222
C      3.782155    0.184586   -1.247781
C      3.569771   -0.401176    0.177796
C      3.910706    0.625500    1.194425
C      4.190682    1.460605    2.018012
O      4.377716   -1.535334    0.391442
C     -0.602798    1.411581   -1.734532
C     -2.006887    1.916561   -1.352114
C     -2.894872    0.861989   -0.735073
C     -4.227806    0.983724   -0.854550
C     -5.145908    0.173956   -0.035599
O     -6.386335    0.239960   -0.242942
C     -4.619597   -0.735403    1.038433
C     -3.182667   -0.363243    1.433693
C     -2.303987   -0.208990    0.171974
H      0.811478   -2.433404   -0.685037
H      2.309979   -2.966020    0.098440
H      2.368507   -2.184155   -1.511570
H      1.556340    0.113719    2.148374
H      1.754409   -1.664948    2.173680
H     -0.601804   -0.837345    2.450151
H     -0.438018   -1.980710    1.096370
H     -0.762066    1.084455    1.014551
H     -0.221894   -0.685041   -1.467657
H      1.554133    1.327065    0.019652
H      2.095259   -0.067390   -2.628818
H      2.398741    1.645690   -2.129499
H      4.222714   -0.582363   -1.922474
H      4.470217    1.059740   -1.243831
H      4.435475    2.193591    2.740799
H      5.320902   -1.270252    0.224373
H      0.080802    2.287393   -1.687726
H     -0.618257    1.088013   -2.798958
H     -2.482427    2.349919   -2.259964
H     -1.903490    2.740897   -0.613225
H     -4.651184    1.749961   -1.493638
H     -4.642704   -1.780996    0.662251
H     -5.273201   -0.673000    1.935066
H     -3.184353    0.586797    2.012790
H     -2.799795   -1.172781    2.088322
H     -2.343826   -1.174868   -0.381385
