34

C     -6.175072    0.670296   -0.388136
O     -4.922489    0.894566   -1.026733
C     -3.683701    0.503652   -0.497894
C     -2.522852    0.792893   -1.240564
C     -1.288845    0.398344   -0.731098
C     -1.187974   -0.273949    0.468317
C     -2.307732   -0.528739    1.254577
C     -3.568202   -0.160021    0.754173
C      0.254476   -0.320018    0.810010
C      0.913041   -1.497855    1.521792
O      2.341228   -1.270133    1.536266
C      3.012412   -0.436001    0.603007
C      2.294380    0.190545   -0.443806
C      0.868131   -0.223397   -0.587069
O     -0.038976    0.604386   -1.307983
C      2.952523    1.013896   -1.362728
C      4.323862    1.248890   -1.219206
C      5.042038    0.642548   -0.175269
C      4.384679   -0.201035    0.730207
O      6.408762    0.870060   -0.031145
H     -6.342834   -0.418521   -0.248171
H     -6.985737    1.075348   -1.027752
H     -6.202312    1.190806    0.592442
H     -2.584717    1.310334   -2.189163
H     -2.208819   -0.983774    2.231454
H     -4.442568   -0.372130    1.353824
H      0.475163    0.605771    1.392879
H      0.691642   -2.449501    0.992103
H      0.539244   -1.573248    2.564271
H      0.863604   -1.224652   -1.081117
H      2.412237    1.461835   -2.187026
H      4.831265    1.892538   -1.926415
H      4.938967   -0.668220    1.534363
H      6.915174    1.473648   -0.668408
