30

C      3.669029    0.199188   -0.547923
C      2.187516   -0.194936   -0.639226
C      1.309725    1.007435   -0.226639
C     -0.189152    0.805322   -0.495660
C     -0.832324   -0.245591    0.441194
O     -0.595254   -1.559085   -0.066182
C      0.667331   -2.147749   -0.178635
O      0.752539   -3.309019   -0.658228
C      1.920802   -1.433864    0.241137
C     -2.364530   -0.063414    0.612421
C     -3.114716   -0.035079   -0.728131
C     -2.720556    1.166074    1.462748
H      4.312934   -0.636564   -0.896189
H      3.876437    1.077655   -1.195741
H      3.942950    0.451946    0.499189
H      1.981695   -0.446512   -1.704461
H      1.629931    1.897409   -0.812573
H      1.471354    1.254420    0.846106
H     -0.675048    1.791768   -0.353424
H     -0.345160    0.516647   -1.558217
H     -0.378521   -0.171598    1.454895
H      1.850488   -1.148997    1.312896
H      2.770874   -2.146951    0.155202
H     -2.734214   -0.950913    1.173835
H     -4.210981   -0.044599   -0.548540
H     -2.857846   -0.929201   -1.334630
H     -2.863531    0.878325   -1.307566
H     -3.804543    1.153117    1.705884
H     -2.156208    1.152491    2.419281
H     -2.501023    2.112273    0.927178
