41

C     -5.587945   -1.158979    0.093177
C     -4.636470   -1.450902   -1.066464
C     -4.285728   -0.197457   -1.887788
C     -3.556857    0.907563   -1.101769
C     -2.189931    0.458060   -0.564542
C     -1.421227    1.643600    0.038370
C     -0.116581    1.215111    0.728629
C      0.958249    0.756811   -0.268677
C      2.285485    0.470744    0.445727
C      3.353838   -0.025428   -0.552559
N      4.710740   -0.153124    0.038985
C      4.752919   -1.129982    1.145212
C      5.675321   -0.542386   -1.006788
O      5.097890    1.056256    0.521991
H     -6.480127   -0.603048   -0.265550
H     -5.925046   -2.116270    0.543624
H     -5.074774   -0.570539    0.881834
H     -3.715936   -1.938792   -0.683196
H     -5.130463   -2.179735   -1.744958
H     -3.653017   -0.504050   -2.749118
H     -5.221993    0.228124   -2.310435
H     -3.405805    1.766451   -1.792060
H     -4.193810    1.269522   -0.266986
H     -1.602168    0.016176   -1.396943
H     -2.336193   -0.312803    0.221779
H     -1.199362    2.393342   -0.752595
H     -2.064414    2.137799    0.799441
H     -0.326248    0.403308    1.459381
H      0.271272    2.088100    1.298224
H      0.621633   -0.168965   -0.782213
H      1.115650    1.550187   -1.032130
H      2.106143   -0.305662    1.219612
H      2.635109    1.399917    0.945200
H      3.389630    0.693775   -1.403196
H      3.025124   -1.005848   -0.967440
H      5.798944   -1.299136    1.485094
H      4.191183   -0.757966    2.028495
H      4.324486   -2.106922    0.829284
H      5.681996    0.201372   -1.834506
H      5.420320   -1.539395   -1.430748
H      6.708162   -0.588830   -0.594897
