17

C     -2.993825    0.667641    0.440976
C     -2.157029   -0.367503    0.356129
C     -0.695642   -0.244323    0.127952
C      0.121157   -1.355907    0.397478
C      1.502430   -1.291354    0.191832
C      2.087376   -0.119470   -0.294402
C      1.283059    0.990754   -0.579022
C     -0.099101    0.930875   -0.374160
O      3.465102   -0.069250   -0.494145
H     -4.046072    0.490568    0.622399
H     -2.661352    1.692301    0.363162
H     -2.571472   -1.358769    0.498699
H     -0.310124   -2.275171    0.775174
H      2.118815   -2.154247    0.410065
H      1.727125    1.899490   -0.965267
H     -0.689383    1.798869   -0.630404
H      3.918938    0.765495   -0.846467
