31

C     -0.997079    1.617201    0.497337
C     -2.409986    1.426694    0.021949
C     -2.506829   -0.091356   -0.163448
O     -1.458207   -0.719140    0.547479
C     -0.690045    0.290314    1.166776
N      0.753286   -0.018557    1.086483
C      1.261139   -0.602182   -0.042727
C      2.630061   -0.883078   -0.158297
C      3.462255   -0.520123    0.910123
O      4.703092   -0.740766    0.858418
N      2.934437    0.079707    2.008146
C      1.602786    0.339537    2.102516
O      1.162841    0.918224    3.134274
C      3.202043   -1.531010   -1.399823
F      4.081075   -0.656016   -2.011648
F      3.881973   -2.683817   -1.050233
F      2.212077   -1.866967   -2.307396
C     -2.420599   -0.484152   -1.646310
O     -2.450590   -1.878745   -1.787754
O     -3.316607    1.842032    1.011948
H     -0.330473    1.779415   -0.378999
H     -0.892559    2.469563    1.204014
H     -2.594515    1.985280   -0.926564
H     -3.478179   -0.460743    0.234807
H     -1.019297    0.339299    2.229658
H      0.599257   -0.847616   -0.862970
H      3.566801    0.353756    2.795035
H     -1.470331   -0.105675   -2.079839
H     -3.261051   -0.024178   -2.215024
H     -3.391380   -2.159097   -1.639274
H     -3.365397    2.832195    0.955921
