21

C      3.334263   -0.204237   -0.400853
C      2.225513    0.833383   -0.268932
O      1.124213    0.303209    0.465682
C      0.204096   -0.603566   -0.072731
O      0.286527   -0.967669   -1.277670
C     -0.912007   -1.118569    0.785799
C     -2.146945   -0.195745    0.787337
C     -2.797893   -0.070818   -0.598128
O     -1.838805    1.068131    1.322321
H      4.204249    0.243910   -0.925370
H      2.978999   -1.079261   -0.983952
H      3.656779   -0.543910    0.606069
H      1.893094    1.173994   -1.273688
H      2.624195    1.713367    0.278343
H     -1.207283   -2.133058    0.438949
H     -0.539872   -1.224856    1.827542
H     -2.900020   -0.663239    1.458321
H     -3.724870    0.535972   -0.521514
H     -3.066408   -1.075954   -0.987287
H     -2.112237    0.423975   -1.317903
H     -1.285587    1.555291    0.657665
