17

C      0.246602   -1.009760    0.440238
C     -0.648857    0.240903    0.472043
C     -1.156014    0.592509   -0.904021
O     -1.902752   -0.205657   -1.532483
O     -0.790146    1.802046   -1.486267
N     -1.764863    0.029528    1.396479
C      1.499668   -0.772644   -0.352418
O      1.571519   -1.169882   -1.545929
N      2.597420   -0.067238    0.226101
H      0.531388   -1.282930    1.479508
H     -0.312171   -1.871767    0.013159
H     -0.043914    1.092956    0.855897
H     -1.117554    2.053291   -2.411371
H     -2.334407    0.906214    1.441215
H     -2.385455   -0.729341    1.029918
H      3.462960    0.109047   -0.330607
H      2.546576    0.282725    1.208537
