33

C     -1.749707    2.074139    0.510799
C     -2.303954    0.679921    0.614081
C     -3.627958    0.482152    1.041462
C     -4.147772   -0.809720    1.158469
C     -3.350614   -1.915836    0.858746
C     -2.029964   -1.734028    0.443471
C     -1.497691   -0.442087    0.319195
N     -0.129140   -0.279253   -0.102121
C      0.188542   -0.255603   -1.438901
N      1.481539   -0.102964   -1.827342
C      2.483967    0.029419   -0.925803
C      3.803938    0.186983   -1.364348
C      4.838590    0.322988   -0.434553
C      4.558442    0.301752    0.934660
C      3.242401    0.144389    1.380993
C      2.194119    0.007040    0.451412
C      0.855078   -0.154143    0.844792
O      0.559549   -0.184185    2.073289
C     -0.863699   -0.396760   -2.502795
H     -1.016181    2.243609    1.326385
H     -2.552440    2.837517    0.592253
H     -1.244738    2.213817   -0.467906
H     -4.260025    1.327332    1.284336
H     -5.169753   -0.953379    1.484716
H     -3.755445   -2.915277    0.951728
H     -1.416390   -2.597085    0.217614
H      4.029639    0.204334   -2.423497
H      5.858621    0.444877   -0.775363
H      5.362600    0.407341    1.651405
H      3.048889    0.130871    2.446530
H     -1.630922    0.396638   -2.385249
H     -1.346095   -1.393191   -2.424744
H     -0.413427   -0.301608   -3.513715
