26

C     -4.150487    0.193599   -0.443885
C     -3.924232   -1.182478   -0.434921
C     -2.625575   -1.677857   -0.300875
C     -1.535098   -0.796481   -0.173857
C     -1.764876    0.594890   -0.183042
C     -3.079018    1.080045   -0.318856
C     -0.626496    1.530538   -0.050265
O     -0.833464    2.775528   -0.058622
C      0.754859    1.010966    0.092398
C      0.995984   -0.383095    0.102764
C     -0.155394   -1.319873   -0.031421
O      0.033332   -2.567066   -0.025041
C      2.325160   -0.855791    0.240338
C      3.387283    0.056986    0.364663
C      3.133734    1.430655    0.352730
C      1.831475    1.904614    0.218058
O      4.695200   -0.407158    0.500050
O      2.587649   -2.227687    0.253254
H     -5.158255    0.574633   -0.547937
H     -4.756819   -1.867301   -0.532028
H     -2.475797   -2.750218   -0.296727
H     -3.279243    2.144134   -0.328501
H      3.949790    2.135778    0.448288
H      1.667700    2.975026    0.212401
H      5.478561    0.229247    0.591325
H      3.524026   -2.601635    0.349710
