35

C     -5.031164    1.029782   -1.337170
C     -4.380726    0.187449   -0.286608
N     -3.026544    0.200176   -0.152684
C     -2.378850   -0.575545    0.761860
C     -3.124980   -1.394451    1.619890
C     -4.514294   -1.438418    1.491538
C     -5.149660   -0.650994    0.530268
C     -0.911045   -0.487120    0.923094
C     -0.031878   -0.195556   -0.061284
C      1.393968    0.047793    0.285844
C      1.739477    0.847014    1.391074
C      3.081133    1.082883    1.703518
C      4.101974    0.531135    0.922539
C      3.762359   -0.270907   -0.183252
C      2.420894   -0.507058   -0.497754
O      5.432307    0.804113    1.274718
C      6.566689    0.329391    0.557822
C     -0.416368   -0.163392   -1.492362
O     -1.268989   -0.971488   -1.949905
O      0.210006    0.732724   -2.353315
H     -5.934533    1.528702   -0.924126
H     -4.327163    1.812971   -1.694402
H     -5.323710    0.388502   -2.196502
H     -2.635750   -2.001669    2.371834
H     -5.098461   -2.078682    2.139546
H     -6.227069   -0.688178    0.427154
H     -0.531543   -0.646215    1.926441
H      0.970998    1.303942    2.003186
H      3.329257    1.705960    2.553977
H      4.526699   -0.714841   -0.807305
H      2.185143   -1.133249   -1.349638
H      7.488457    0.703219    1.049185
H      6.542605    0.705746   -0.486681
H      6.585284   -0.780988    0.563818
H     -0.024521    0.757249   -3.338461
