21

C      0.382676    0.722900    0.582231
C     -0.059745   -0.317723   -0.464784
C     -1.555962   -0.190312   -0.832131
C     -2.449782   -0.443008    0.353097
O     -2.839335    0.514208    1.075305
O     -2.816397   -1.746213    0.674238
O     -1.807220    1.080625   -1.376305
O      0.210167   -1.609504    0.019823
C      1.871436    0.677601    0.792963
O      2.336339   -0.015822    1.737059
C      2.794099    1.396197   -0.107793
O      2.340828    2.071603   -1.069326
O      4.172361    1.339631    0.087168
H      0.091053    1.745016    0.257969
H     -0.125698    0.525522    1.551014
H      0.531570   -0.141052   -1.394745
H     -1.779116   -0.963119   -1.604396
H     -3.404621   -1.937675    1.476393
H     -2.684227    1.027345   -1.839491
H      0.209035   -2.217922   -0.764877
H      4.582540    0.809685    0.846589
