20

C     -0.717972   -0.823346    0.541884
C     -0.734510    0.712718    0.489997
C     -2.160850    1.261517    0.433120
O     -2.779901    0.872465   -0.761927
C      0.700743   -1.385417    0.706404
C      1.537606   -1.164735   -0.525131
O      1.370410   -1.916780   -1.522414
C      2.525158   -0.075765   -0.604933
O      2.700347    0.704065    0.369564
O      3.270008    0.096418   -1.767738
H     -1.179207   -1.241037   -0.380042
H     -1.326699   -1.162477    1.408545
H     -0.235357    1.117972    1.397166
H     -0.176782    1.069970   -0.402506
H     -2.119355    2.372354    0.484638
H     -2.744274    0.889376    1.305203
H     -3.696019    1.252926   -0.733370
H      0.628473   -2.479319    0.890168
H      1.185211   -0.941851    1.602937
H      3.952972    0.840949   -1.842067
