19

C     -1.838119   -0.072936    0.993895
C     -1.004502   -0.892292    0.003944
N      0.034677   -0.126120   -0.717097
C      1.234341    0.233328    0.062594
C      2.241169   -0.911488    0.034606
N     -0.506142    0.965085   -1.439165
N     -0.736254    2.234099   -0.871679
O     -0.460890    2.495420    0.317040
O     -0.759689    0.798760   -2.757253
H     -1.199756    0.408846    1.761037
H     -2.443243    0.690119    0.462896
H     -2.543402   -0.750863    1.519214
H     -1.693219   -1.343642   -0.742389
H     -0.535856   -1.738633    0.549568
H      1.733714    1.122515   -0.382919
H      0.983369    0.470651    1.117520
H      2.495257   -1.169984   -1.015354
H      3.169271   -0.604589    0.561521
H      1.829277   -1.808277    0.542021
