12

C     -1.992021   -0.251297    0.209645
C     -0.696883    0.175323   -0.402830
C      0.463126   -0.043643    0.223392
C      1.759522    0.363084   -0.349991
O      1.817541    0.940442   -1.468533
O      2.938977    0.110965    0.344360
H     -2.135956    0.258143    1.185921
H     -2.832450    0.019483   -0.463221
H     -1.995224   -1.351297    0.362454
H     -0.718799    0.667250   -1.368042
H      0.461460   -0.537397    1.188145
H      2.930707   -0.351057    1.245949
