28

C      5.145812    0.249420    0.590941
C      4.937977   -0.915197   -0.148560
C      3.642572   -1.291770   -0.514658
C      2.533385   -0.507553   -0.145844
C      2.759172    0.669277    0.603048
C      4.058400    1.039657    0.965740
C      1.180760   -0.965979   -0.568361
C      0.030128   -0.328459   -0.293987
C     -1.283846   -0.852268   -0.752910
O     -1.304436   -1.925984   -1.417175
C     -2.582808   -0.168465   -0.465572
C     -2.665846    1.036399    0.268559
C     -3.904398    1.638998    0.512080
C     -5.077058    1.056638    0.031927
C     -5.015900   -0.131821   -0.694413
C     -3.782337   -0.740521   -0.942167
H      6.149460    0.539708    0.873675
H      5.781563   -1.528006   -0.439142
H      3.507261   -2.200426   -1.088866
H      1.953316    1.313868    0.917108
H      4.221980    1.942890    1.539536
H      1.137670   -1.885800   -1.140185
H      0.056474    0.582186    0.270551
H     -1.794193    1.531197    0.663604
H     -3.954094    2.561842    1.075815
H     -6.033221    1.526576    0.222838
H     -5.926166   -0.583749   -1.067071
H     -3.771624   -1.662657   -1.509522
