17

C     -1.516477   -0.315376    0.008004
C     -0.507385   -1.112282    0.834250
C      0.891305   -0.994805    0.218081
C      1.258771    0.428387   -0.133607
C      0.331857    1.382705   -0.301637
C     -1.130726    1.167523   -0.010143
O      2.597108    0.750567   -0.346009
H     -1.543645   -0.709212   -1.032107
H     -2.531062   -0.428817    0.447062
H     -0.491247   -0.728522    1.878346
H     -0.810463   -2.181076    0.863625
H      0.935898   -1.606757   -0.708515
H      1.636279   -1.403361    0.933908
H      0.652604    2.384738   -0.559233
H     -1.361374    1.619637    0.978482
H     -1.737268    1.693738   -0.777630
H      3.325827    0.052911   -0.253671
