15

C     -0.786462   -0.677435    0.078078
C      0.212216    0.426619   -0.307079
C      1.374345   -0.178374   -1.049329
O      1.494312    0.013347   -2.288117
O      2.309612   -0.971861   -0.389242
N      0.695463    1.122137    0.887473
N     -1.995590   -0.101194    0.660217
H     -0.317437   -1.365241    0.816255
H     -1.059070   -1.271808   -0.823780
H     -0.298669    1.158224   -0.975172
H      2.237390   -1.155420    0.604252
H      1.366443    1.866368    0.585763
H     -0.108302    1.626740    1.326969
H     -2.517066    0.398645   -0.096474
H     -2.607185   -0.890747    0.970187
