15

C      0.156499    1.514400   -0.052407
C      0.010275    0.002740   -0.277540
C      1.180828   -0.732126    0.401771
C     -1.329834   -0.475801    0.311347
O      0.035671   -0.237688   -1.664218
H     -0.674853    2.060578   -0.548008
H      1.114107    1.877935   -0.483576
H      0.142086    1.755966    1.032554
H      1.086074   -1.830259    0.260928
H      1.198612   -0.518922    1.492498
H      2.147486   -0.407587   -0.039808
H     -1.448873   -1.571455    0.169639
H     -2.177157    0.033929   -0.195570
H     -1.381837   -0.255463    1.399559
H     -0.059084   -1.216245   -1.807168
