34

C      4.257049   -0.339283   -0.461281
N      3.356626    0.301664    0.492392
C      3.658174    1.347709    1.286412
N      2.619638    1.729626    2.059912
C      1.626546    0.876545    1.736337
C      2.077689   -0.008694    0.779705
C      1.296494   -1.112451    0.184020
C      0.024796   -1.053448   -0.232712
C     -0.356549   -2.396031   -0.680891
O     -1.455322   -2.708019   -1.210554
N      0.712053   -3.310930   -0.500175
C      1.740745   -2.503076    0.048655
O      2.857326   -2.955418    0.413574
C     -0.815384    0.156469   -0.324315
C     -0.416345    1.409114   -0.784711
N     -1.453873    2.275384   -0.758410
C     -2.503825    1.583671   -0.283702
C     -3.794267    2.060832   -0.057959
C     -4.741514    1.168805    0.475968
C     -4.379656   -0.162420    0.777576
C     -3.069275   -0.616233    0.541597
C     -2.155051    0.285306   -0.006934
H      4.818022   -1.152544    0.043759
H      4.981512    0.402801   -0.859108
H      3.683453   -0.754761   -1.316386
H      4.623973    1.836415    1.301700
H      0.641113    0.893234    2.183170
H      0.735903   -4.331516   -0.718659
H      0.575350    1.668578   -1.132167
H     -1.437334    3.278933   -1.046597
H     -4.058817    3.086453   -0.280568
H     -5.751865    1.507493    0.664762
H     -5.113490   -0.836367    1.200018
H     -2.783895   -1.627841    0.795765
