16

C     -0.700296   -0.590564    1.012488
C      0.637527   -0.509235    1.099191
C      1.467981   -0.040537   -0.078639
C      0.677107    0.862343   -0.993667
C     -0.661078    0.784350   -1.078008
C     -1.437557   -0.218704   -0.254245
O     -2.690371    0.319737    0.076235
Cl    -1.502561    1.779710   -2.262312
O      2.596159    0.660039    0.375469
Cl     1.431812   -1.078496    2.564702
H     -1.266562   -0.988767    1.849830
H      1.776311   -0.932872   -0.671016
H      1.214431    1.547808   -1.643184
H     -1.566575   -1.136526   -0.872218
H     -3.278055   -0.444520    0.314816
H      3.301725   -0.013765    0.560560
