17

C      3.352072   -0.496408   -0.303062
C      1.890397   -0.803556   -0.360631
C      0.987555    0.067225    0.093868
C     -0.451994   -0.234187    0.037535
C     -1.355501    0.637083    0.492292
C     -2.820195    0.332552    0.445392
O     -3.237954    0.223911   -0.886679
H      3.930237   -1.343514   -0.727894
H      3.665769   -0.340895    0.750870
H      3.570887    0.418742   -0.892963
H      1.573657   -1.751504   -0.780422
H      1.318513    1.012166    0.511354
H     -0.782612   -1.179239   -0.379879
H     -1.035729    1.580920    0.919188
H     -3.019711   -0.617954    0.989114
H     -3.378104    1.154569    0.946008
H     -4.207286    0.013538   -0.854091
