18

C      2.617325   -0.399243   -1.000269
C      1.744638    0.604003   -0.305480
O      2.262966    1.447380    0.410591
C      0.248813    0.599268   -0.481878
C     -0.450065    0.200643    0.825505
C     -1.978837    0.229872    0.699292
C     -2.483261   -0.863900   -0.191482
O     -2.837739   -0.607956   -1.372292
O     -2.532173   -2.171996    0.273448
H      3.325633    0.127812   -1.673192
H      2.016776   -1.112048   -1.603023
H      3.193552   -0.974210   -0.245442
H     -0.038536   -0.108382   -1.288408
H     -0.078766    1.615535   -0.791235
H     -0.118298   -0.814870    1.136889
H     -0.155689    0.913741    1.626684
H     -2.311685    1.220196    0.318078
H     -2.424653    0.094155    1.707919
