50

C     -1.474167   -0.746272    1.064767
C     -0.517283    0.439816    0.865722
C     -0.835007    1.182527   -0.450069
O     -0.855905    0.267454   -1.549589
C     -1.240547   -1.074368   -1.426468
C     -1.299615   -1.867758   -2.574895
C     -1.702553   -3.201108   -2.491852
C     -2.064594   -3.741908   -1.253109
C     -2.018703   -2.960573   -0.092789
C     -1.562702   -1.622409   -0.165745
O     -2.443067   -3.540279    1.104964
O     -1.748864   -3.978099   -3.647102
C     -2.126382    1.974143   -0.348914
C     -2.108967    3.232095    0.278375
C     -3.287480    3.977979    0.422783
C     -4.502196    3.462417   -0.057271
C     -4.527486    2.208061   -0.672955
C     -3.352791    1.465536   -0.816062
O     -5.691440    4.179387    0.070507
O     -3.255037    5.226096    1.042947
O      0.822246   -0.056842    0.832484
C      1.955242    0.744772    1.018985
O      1.826610    1.967734    1.303740
C      3.302909    0.149393    0.887032
C      4.455078    0.927046    1.092841
C      5.728875    0.363005    0.966840
C      5.865914   -0.994359    0.630275
C      4.719446   -1.779453    0.421427
C      3.446691   -1.206584    0.550061
O      4.848220   -3.126705    0.086130
O      7.140611   -1.549009    0.506846
O      6.847624    1.168273    1.180119
H     -1.098049   -1.332426    1.929807
H     -2.490186   -0.373532    1.316333
H     -0.629641    1.127681    1.734213
H     -0.018157    1.908185   -0.652779
H     -1.036342   -1.443767   -3.535875
H     -2.397618   -4.770415   -1.191599
H     -2.526822   -3.027931    1.972693
H     -2.038675   -4.948769   -3.621399
H     -1.177090    3.631759    0.659941
H     -5.463091    1.805214   -1.039595
H     -3.412778    0.496187   -1.289191
H     -5.725145    5.091941    0.508617
H     -2.390829    5.622531    1.392824
H      4.371176    1.975170    1.352989
H      2.573086   -1.824885    0.384148
H      4.038144   -3.715363   -0.069981
H      7.285206   -2.522497    0.267734
H      7.792131    0.810907    1.101098
