19

C      2.979011   -0.397042   -0.787237
O      1.814536   -0.356434    0.028231
C      0.965808    0.753315    0.073372
O      1.209353    1.778398   -0.620399
C     -0.266393    0.706441    0.927535
C     -1.496946    0.186256    0.160398
C     -1.301787   -1.249934   -0.258217
O     -0.807454   -1.523599   -1.384499
O     -1.616238   -2.286405    0.615964
N     -1.780934    1.029730   -1.003604
H      3.678530    0.413519   -0.492071
H      2.698598   -0.280927   -1.855610
H      3.484320   -1.375287   -0.652536
H     -0.479369    1.725628    1.317627
H     -0.074647    0.055312    1.808137
H     -2.370413    0.228530    0.850034
H     -1.989532   -2.099387    1.538871
H     -1.979172    2.000097   -0.666535
H     -2.667272    0.691788   -1.445404
