46

C      6.721407   -0.379319    0.611421
C      6.347224    0.793175   -0.294670
C      4.836257    1.071209   -0.311510
C      4.040930   -0.039426   -1.019643
C      2.573767    0.348115   -1.261913
C      1.760147    0.416000    0.036718
C      0.316380    0.657522   -0.267668
O     -0.127554    1.837697   -0.304500
O     -0.513031   -0.431263   -0.561879
C     -1.908460   -0.314732   -0.854965
C     -2.315933   -1.552693   -1.676667
C     -2.304213   -2.824478   -0.879953
O     -3.349128   -3.519052   -0.779089
O     -1.132384   -3.257821   -0.272248
C     -2.692227   -0.108346    0.484265
N     -4.134111    0.311953    0.406323
C     -5.030942   -0.854160    0.214164
C     -4.379088    1.308498   -0.663091
C     -4.497002    0.937347    1.704746
H      6.328386   -1.332760    0.201923
H      6.320854   -0.222800    1.635491
H      7.827167   -0.459562    0.673101
H      6.712434    0.597976   -1.326257
H      6.867332    1.701843    0.078587
H      4.475694    1.196623    0.731706
H      4.671393    2.032328   -0.845724
H      4.507682   -0.244375   -2.007971
H      4.079583   -0.977619   -0.425699
H      2.523598    1.325033   -1.791748
H      2.122403   -0.419662   -1.928965
H      1.854156   -0.541334    0.593537
H      2.136197    1.235521    0.685263
H     -2.033698    0.568242   -1.516188
H     -1.591177   -1.672113   -2.510850
H     -3.295642   -1.395590   -2.167216
H     -2.120073    0.669431    1.038931
H     -2.586934   -1.020286    1.113428
H     -4.821175   -1.653066    0.959654
H     -6.099471   -0.561479    0.326209
H     -4.944268   -1.286196   -0.797557
H     -5.410590    1.722642   -0.597701
H     -3.663491    2.157302   -0.585418
H     -4.286511    0.853443   -1.672716
H     -3.902150    1.860797    1.887798
H     -4.312109    0.236706    2.550471
H     -5.571628    1.228730    1.734171
