30

C      2.514982   -1.083959    0.479070
C      1.487872   -0.130063   -0.161127
C      0.957566   -0.712194   -1.473421
C     -0.262675   -1.472204   -1.048308
C     -0.655120   -0.819738    0.281085
O      0.393298    0.024234    0.717875
C     -1.996822   -0.023777    0.218854
C     -2.376956    0.472185    1.629569
C     -1.881627    1.195822   -0.715790
O     -3.028745   -0.849116   -0.269510
C      2.133827    1.221360   -0.400720
C      2.462022    2.039817    0.605421
H      2.842851   -0.697578    1.467573
H      3.408188   -1.191663   -0.173669
H      2.068953   -2.089047    0.637462
H      0.646419    0.092630   -2.176685
H      1.693098   -1.368994   -1.988784
H     -1.057385   -1.428523   -1.823914
H      0.004078   -2.539580   -0.881239
H     -0.770284   -1.631685    1.034384
H     -2.454690   -0.381459    2.336542
H     -3.360478    0.988907    1.604977
H     -1.615858    1.182209    2.019054
H     -2.834526    1.767575   -0.720178
H     -1.679789    0.878921   -1.759622
H     -1.068024    1.877131   -0.386653
H     -3.099253   -1.638208    0.329828
H      2.333887    1.553441   -1.416103
H      2.276443    1.762032    1.638348
H      2.918748    3.001524    0.395681
