39

C      5.441683    1.108294    1.207328
C      3.987484    0.977623    0.846788
C      3.346070    1.964429    0.190283
C      1.871566    1.861154   -0.112363
C      1.439612    0.419582   -0.305247
C      2.083562   -0.559094    0.369461
C      3.215848   -0.236977    1.311692
C      0.261947    0.106381   -1.215916
C      0.713308   -0.771595   -2.393254
C     -0.893793   -0.534225   -0.413598
C     -2.206988   -0.587037   -1.208901
C     -3.340145   -1.064964   -0.335199
C     -4.111607   -0.256621    0.425062
C     -3.940181    1.244577    0.426079
C     -5.182751   -0.882374    1.280601
H      5.989995    0.200603    0.879077
H      5.540436    1.211568    2.308055
H      5.910086    1.991518    0.722370
H      3.876720    2.863609   -0.109880
H      1.651207    2.459365   -1.021843
H      1.301689    2.292901    0.737300
H      1.779980   -1.595951    0.263362
H      3.889341   -1.117021    1.389115
H      2.793929   -0.028779    2.317636
H     -0.112130    1.063225   -1.643122
H      0.966567   -1.797814   -2.052259
H      1.607046   -0.325605   -2.880238
H     -0.087243   -0.836450   -3.158937
H     -0.618252   -1.564782   -0.098877
H     -1.055516    0.063375    0.509957
H     -2.097945   -1.308897   -2.045405
H     -2.439813    0.401841   -1.656841
H     -3.516242   -2.137707   -0.306885
H     -2.908756    1.516045    0.730113
H     -4.640376    1.733079    1.135005
H     -4.146742    1.649557   -0.586581
H     -5.895702   -1.442989    0.639475
H     -5.753921   -0.119282    1.849108
H     -4.719973   -1.583124    2.007481
