28

C      3.937642    1.054047   -0.868292
C      2.745509    1.266826    0.057238
O      1.992336    0.063805    0.192409
C      1.124722   -0.417726   -0.795314
O      0.951939    0.223059   -1.868064
C      0.378631   -1.704695   -0.567106
C     -0.518300   -1.629446    0.683927
C     -1.609452   -0.600274    0.526424
C     -1.439876    0.699667    1.033062
C     -2.440064    1.660566    0.855803
C     -3.611771    1.333537    0.167809
C     -3.783957    0.045681   -0.347021
C     -2.785926   -0.918166   -0.172706
O      1.283654   -2.774536   -0.462525
H      4.573424    0.229004   -0.483081
H      3.593104    0.800467   -1.892406
H      4.543465    1.983295   -0.916097
H      3.120601    1.562860    1.059454
H      2.099833    2.087188   -0.325154
H     -0.270096   -1.904794   -1.448599
H      0.096807   -1.402785    1.582894
H     -0.980549   -2.625916    0.857494
H     -0.533340    0.969366    1.560674
H     -2.305384    2.659811    1.249277
H     -4.384528    2.078832    0.030614
H     -4.689563   -0.204939   -0.884167
H     -2.927608   -1.910124   -0.583653
H      1.838750   -2.624611    0.347671
