39

C      3.303153    1.415690    0.316776
C      2.301296    0.321529    0.714498
C      2.749372   -1.050292    0.208394
C      1.476364   -1.869316    0.119144
C      0.421092   -0.873394   -0.378899
C      0.838015    0.499071    0.199112
C      0.619414    1.623160   -0.868702
C     -0.852565    1.867853   -1.160240
C     -1.829555    1.315499   -0.402667
C     -1.469379    0.277755    0.662717
C     -0.173540    0.735734    1.328820
C     -1.078011   -1.093477    0.030995
C     -1.300563   -2.218179    1.075722
C     -1.935488   -1.455966   -1.208560
C     -3.265636    1.685605   -0.649503
H      2.997026    2.390166    0.751733
H      4.308500    1.166747    0.718623
H      3.383043    1.507669   -0.787011
H      2.303499    0.277659    1.827193
H      3.484740   -1.519814    0.897920
H      3.200117   -0.969431   -0.806502
H      1.592080   -2.724020   -0.581939
H      1.261854   -2.255061    1.135687
H      0.518597   -0.853590   -1.489471
H      1.028996    2.584391   -0.495364
H      1.144260    1.373764   -1.815651
H     -1.109208    2.586735   -1.933226
H     -2.286267    0.183574    1.412175
H      0.045055    0.113877    2.224076
H     -0.212915    1.801090    1.650584
H     -0.790115   -2.005352    2.036922
H     -0.939970   -3.194274    0.685796
H     -2.383812   -2.323590    1.301659
H     -1.662602   -2.466301   -1.582445
H     -1.778349   -0.743579   -2.045627
H     -3.015699   -1.455084   -0.947600
H     -3.537103    1.457330   -1.701852
H     -3.945087    1.115652    0.018010
H     -3.410609    2.770169   -0.461300
