39

C      3.739470   -1.794091    0.098931
C      2.688968   -0.725763   -0.034459
C      1.388530   -1.072629    0.059546
C      0.259687   -0.078141   -0.131514
C      0.712180    1.350268    0.261214
C      2.005539    1.695166   -0.501880
C      3.131802    0.721258   -0.127751
C     -0.460803    2.301065    0.032603
C     -0.368190    3.458360   -0.647066
C     -1.802757    1.908669    0.608696
C     -1.703423    0.606668    1.413478
C     -1.061809   -0.550640    0.592439
C     -2.065704   -1.208983   -0.421535
C     -3.404134   -1.608784    0.229820
C     -1.456783   -2.459710   -1.085103
H      3.641071   -2.522237   -0.733703
H      3.617994   -2.326084    1.066395
H      4.759568   -1.356205    0.065556
H      1.137304   -2.123420    0.178218
H      0.067701   -0.036023   -1.227335
H      0.955825    1.373019    1.347280
H      1.825584    1.651787   -1.599084
H      2.345173    2.720091   -0.238784
H      3.549358    1.016462    0.859348
H      3.945200    0.811909   -0.879611
H     -1.242111    4.090652   -0.774156
H      0.554903    3.802471   -1.095660
H     -2.168665    2.716104    1.279715
H     -2.537565    1.780436   -0.215124
H     -2.696170    0.340101    1.823600
H     -1.076983    0.794933    2.313182
H     -0.803979   -1.330008    1.345528
H     -2.293918   -0.478048   -1.228427
H     -3.230454   -2.158866    1.179382
H     -4.030599   -0.713761    0.422810
H     -3.998750   -2.256769   -0.449251
H     -0.564626   -2.204017   -1.691098
H     -2.187227   -2.926234   -1.780212
H     -1.171207   -3.209005   -0.315986
