50

C      5.538806   -0.516937   -1.116928
C      4.835526    0.193906    0.045350
C      5.413620   -0.249512    1.394613
C      3.334686   -0.026744   -0.007091
C      2.471070    1.060420   -0.194569
C      1.078717    0.883907   -0.254268
C      0.519051   -0.413080   -0.077593
C      1.407558   -1.502640    0.067890
C      2.787526   -1.310464    0.115414
C     -0.998654   -0.649347   -0.226111
C     -1.484110   -1.777587    0.733108
C     -3.009264   -1.918284    0.776918
C     -3.681815   -0.619004    1.221197
C     -3.320673    0.602514    0.332915
C     -1.749517    0.680013    0.164397
C     -1.246229    1.855837   -0.698594
C      0.233345    2.127960   -0.417342
C     -4.100683    0.539123   -1.007199
C     -3.826207    1.862930    1.089363
C     -1.205459   -1.097538   -1.697994
H      5.430759   -1.619443   -1.037178
H      5.107031   -0.182411   -2.084465
H      6.621442   -0.267669   -1.115635
H      5.054758    1.280192   -0.058602
H      6.492549    0.009605    1.449202
H      4.889136    0.272767    2.223243
H      5.307285   -1.345889    1.536325
H      2.882722    2.058050   -0.296170
H      1.049986   -2.518839    0.126799
H      3.430231   -2.172762    0.237766
H     -1.086261   -2.766097    0.423012
H     -1.112909   -1.577316    1.763168
H     -3.268775   -2.715356    1.507207
H     -3.402240   -2.251843   -0.204555
H     -3.373772   -0.422828    2.273370
H     -4.783831   -0.772828    1.231992
H     -1.387641    0.904364    1.197047
H     -1.797917    2.788824   -0.472707
H     -1.394156    1.660746   -1.778968
H      0.641317    2.752140   -1.242349
H      0.313007    2.720001    0.520828
H     -3.690844    1.248087   -1.754086
H     -4.132295   -0.473122   -1.442974
H     -5.167036    0.810665   -0.847938
H     -3.224792    2.055971    2.003625
H     -3.797363    2.768319    0.448957
H     -4.884134    1.732524    1.406602
H     -0.796101   -0.360372   -2.417925
H     -2.254816   -1.291322   -1.955710
H     -0.662635   -2.049631   -1.883355
