39

C      4.068385    0.917896   -0.067184
C      3.003468   -0.101671    0.277393
C      1.674777    0.232184    0.293158
C      1.197798    1.658964    0.074954
C     -0.033626    1.698426   -0.838296
C     -1.200233    0.794945   -0.347119
C     -0.648972   -0.666788   -0.166301
C      0.600325   -0.746638    0.741744
C     -1.708185   -1.692904    0.254004
C     -2.170153   -1.767043    1.514608
C     -2.219447   -2.700089   -0.746142
C     -1.801598    1.366724    0.963275
C     -2.283567    0.791833   -1.426558
C     -2.943594    1.893562   -1.808969
C      3.468017   -1.504310    0.607977
H      4.024491    1.769132    0.644694
H      5.090707    0.490370   -0.009414
H      3.920730    1.283343   -1.105279
H      0.956674    2.112387    1.059334
H      1.964776    2.305834   -0.394283
H     -0.369018    2.755193   -0.923436
H      0.280586    1.377525   -1.857441
H     -0.279846   -0.977385   -1.170859
H      0.350021   -0.516230    1.796685
H      0.949294   -1.798433    0.721222
H     -1.821817   -1.099085    2.293017
H     -2.908004   -2.514674    1.790899
H     -1.760693   -2.560454   -1.746723
H     -1.984459   -3.728334   -0.398151
H     -3.319966   -2.595494   -0.853233
H     -1.118398    1.236100    1.825318
H     -1.999679    2.455120    0.866742
H     -2.769442    0.877747    1.201422
H     -2.537239   -0.135602   -1.930188
H     -3.698644    1.829067   -2.585708
H     -2.742789    2.861031   -1.361980
H      3.057837   -2.223226   -0.132233
H      3.137971   -1.783202    1.631031
H      4.573512   -1.595823    0.580591
