27

C      3.357165   -0.325339    0.648490
C      2.022461   -0.406915   -0.044478
C      1.168531    0.630341    0.065949
C     -0.192265    0.632853   -0.586606
C     -1.206209    1.592940    0.052143
C     -1.359010    0.076714    0.240795
C     -2.430760   -0.671243   -0.565395
C     -1.083106   -0.433238    1.663473
C     -2.112228    2.261961   -0.940212
O     -1.656730    3.054423   -1.748571
C      1.663550   -1.636487   -0.844536
H      3.963455   -1.239427    0.479405
H      3.927183    0.546803    0.263816
H      3.204653   -0.205944    1.742157
H      1.467515    1.504032    0.640196
H     -0.254387    0.532516   -1.692674
H     -0.831759    2.187639    0.913483
H     -3.424148   -0.512908   -0.096127
H     -2.477748   -0.337546   -1.623785
H     -2.203167   -1.757745   -0.559728
H     -0.646760   -1.452434    1.614959
H     -0.386985    0.225561    2.224761
H     -2.037677   -0.482372    2.227780
H     -3.179731    2.069557   -0.921361
H      0.745977   -2.104585   -0.430873
H      1.485740   -1.357671   -1.904453
H      2.476440   -2.391485   -0.818606
