20

C     -1.283854    1.708633   -0.146160
N     -0.583814    0.481122   -0.555864
C     -1.440904   -0.697500   -0.414545
C     -0.511723   -1.882662   -0.243570
C      0.747309   -1.307184    0.381337
C      0.603378    0.215551    0.271355
C      1.824174    0.835738   -0.354469
O      1.980730    0.802044   -1.604107
O      2.813387    1.407811    0.440323
H     -0.611067    2.584157   -0.268648
H     -2.170791    1.870054   -0.795538
H     -1.617552    1.656231    0.914320
H     -2.096919   -0.621780    0.484063
H     -2.073742   -0.821790   -1.319581
H     -0.273733   -2.317106   -1.239706
H     -0.968301   -2.665678    0.400393
H      1.645740   -1.694977   -0.149662
H      0.815410   -1.608087    1.450208
H      0.471632    0.626209    1.300235
H      2.730640    1.429215    1.449615
