49

C     -0.369499    2.444161   -1.711871
C     -1.828685    2.079186   -1.571960
C     -2.214666    0.888468   -1.040099
C     -3.691887    0.472015   -0.943378
C     -4.643767    1.683390   -1.094270
C     -4.227336    2.592011   -2.243868
C     -2.823421    3.132340   -1.990134
C     -3.970623   -0.165785    0.436285
C     -3.986397   -0.575482   -2.046316
C     -1.197039   -0.127423   -0.679354
C     -0.426855    0.002676    0.406857
C      0.623226   -0.985824    0.762129
C      1.769226   -0.518551    1.303661
C      2.946461   -1.377268    1.575387
C      4.058777   -0.875952    2.133602
C      5.278875   -1.692065    2.368586
C      6.525340   -1.168944    2.334976
C      6.879525    0.215435    1.951701
O      6.079852    0.987968    1.348396
C      5.140090   -3.170194    2.634656
C      0.409296   -2.450704    0.471333
H      0.150980    1.688802   -2.338201
H     -0.259788    3.444116   -2.194882
H      0.114104    2.504398   -0.716832
H     -5.692864    1.355874   -1.266997
H     -4.645169    2.292368   -0.162856
H     -4.952477    3.443083   -2.306041
H     -4.267255    2.044400   -3.217236
H     -2.480360    3.615979   -2.927359
H     -2.861689    3.921919   -1.203172
H     -3.404846   -1.114199    0.562613
H     -3.686333    0.525780    1.251438
H     -5.048975   -0.394944    0.544049
H     -5.055535   -0.886559   -2.007920
H     -3.375535   -1.495778   -1.904243
H     -3.759321   -0.182561   -3.057534
H     -1.070895   -0.973514   -1.333778
H     -0.525168    0.894606    1.016310
H      1.866841    0.542982    1.498028
H      2.938943   -2.418985    1.268983
H      4.072871    0.164510    2.420633
H      7.368399   -1.804027    2.586278
H      7.889664    0.564432    2.152886
H      5.261530   -3.732615    1.686520
H      4.139583   -3.397868    3.053648
H      5.889462   -3.515682    3.368995
H      0.653999   -3.044588    1.371565
H      1.058668   -2.756975   -0.375108
H     -0.649328   -2.674408    0.211055
