39

C      0.018801    2.654130   -0.521464
C     -1.024940    1.614011   -0.196325
C     -2.099009    2.018467    0.503647
C     -3.253130    1.139483    0.735918
O     -4.229841    1.557749    1.412229
C     -3.302394   -0.225408    0.119926
C     -1.878204   -0.819021   -0.035308
C     -0.974531    0.210985   -0.833167
C      0.453869   -0.323665   -0.953480
C      1.376872   -0.223783    0.016154
C      2.723673   -0.839775   -0.102386
C      3.805085   -0.340211    0.530349
C      3.853274    0.921607    1.295514
O      4.794959    1.105510    2.111645
O      2.923803    1.935638    1.088041
C      2.889627   -2.091304   -0.928813
O     -1.506024    0.326388   -2.135647
C     -1.998807   -2.156873   -0.806701
C     -1.317493   -1.140012    1.377514
H      0.786228    2.271577   -1.224434
H     -0.461113    3.534257   -1.000367
H      0.519624    2.983572    0.412329
H     -2.137675    3.026934    0.900440
H     -3.938514   -0.893104    0.742720
H     -3.793394   -0.134855   -0.873531
H      0.714180   -0.824487   -1.878404
H      1.120678    0.290404    0.932347
H      4.739032   -0.888063    0.471580
H      2.978753    2.805917    1.603504
H      1.970820   -2.713605   -0.879027
H      3.730566   -2.717435   -0.560114
H      3.085473   -1.813967   -1.985662
H     -0.934538    0.953457   -2.653700
H     -1.004107   -2.634174   -0.935595
H     -2.444422   -2.004220   -1.812593
H     -2.648897   -2.869112   -0.253509
H     -1.094508   -0.214544    1.947919
H     -0.392147   -1.749792    1.316399
H     -2.051630   -1.732677    1.964917
