24

C     -3.144239    1.170708    0.100641
C     -2.611835   -0.125466   -0.502186
C     -2.199451   -1.091266    0.579326
C     -0.984792   -1.117345    1.159182
C      0.175668   -0.244130    0.755170
C      0.970865   -0.892358   -0.384232
C      2.092697   -0.003615   -0.838145
C      3.175258    0.198994   -0.079190
C      4.291302    1.054189   -0.509815
O      4.275516    1.643960   -1.623190
H     -2.364416    1.670836    0.712014
H     -3.451791    1.859851   -0.713820
H     -4.027841    0.961239    0.740839
H     -3.421733   -0.592972   -1.102069
H     -1.773958    0.091786   -1.196293
H     -2.949752   -1.791284    0.935781
H     -0.813322   -1.840464    1.951498
H      0.838441   -0.123076    1.638928
H     -0.168943    0.770030    0.463266
H      0.299522   -1.080811   -1.248953
H      1.381258   -1.872356   -0.054766
H      2.018642    0.453132   -1.818057
H      3.249083   -0.279361    0.889967
H      5.143819    1.179781    0.144106
