27

C      5.352758    1.352868   -0.078255
O      4.065668    0.759714   -0.200342
C      3.809017   -0.316232   -1.057462
O      4.733135   -0.803345   -1.763679
C      2.459200   -0.893921   -1.147018
C      1.436497   -0.422513   -0.424231
C      0.079871   -0.996708   -0.509086
O     -0.155806   -1.966759   -1.281330
N     -0.974131   -0.446608    0.291630
C     -2.334604   -0.985240    0.236790
C     -3.288581   -0.207061    1.166136
C     -3.438652    1.220180    0.718808
O     -3.974213    1.487306   -0.390919
O     -2.974943    2.251474    1.529751
N     -4.605575   -0.844957    1.220818
H      5.678041    1.760593   -1.058782
H      5.303823    2.181659    0.657412
H      6.086695    0.598882    0.277163
H      2.307636   -1.726088   -1.824458
H      1.592893    0.409573    0.251541
H     -0.754044    0.352084    0.929596
H     -2.309015   -2.051387    0.550845
H     -2.707339   -0.941842   -0.810342
H     -2.859304   -0.210187    2.193174
H     -3.063248    3.218618    1.241687
H     -4.500993   -1.790663    1.655713
H     -4.964785   -0.989438    0.248399
