15

C      1.820183    0.339297   -0.784136
C      0.783591   -0.661598   -0.372197
C     -0.411590   -0.358407    0.175870
C     -1.372170   -1.484814    0.459402
C     -0.872118    1.033857    0.428968
O     -2.093430    1.255376    0.650323
O      0.017889    2.103664    0.450238
H      2.669405   -0.185167   -1.270380
H      1.393205    1.058351   -1.514577
H      2.211872    0.874776    0.105694
H      1.024343   -1.701702   -0.562564
H     -2.034996   -1.635141   -0.418358
H     -0.835326   -2.434239    0.673670
H     -1.995879   -1.251154    1.348105
H     -0.304981    3.046901    0.629944
