25

C     -1.792092   -0.418456   -0.805597
C     -2.559378    0.011898    0.460075
C     -3.980279    0.360206    0.106234
O     -4.834686   -0.551102   -0.057861
O     -4.354294    1.686016   -0.095945
N     -2.542684   -1.036060    1.485256
N     -0.387018   -0.688502   -0.502944
C      0.564611    0.355639   -0.252784
O      0.210878    1.564600   -0.329966
C      1.957492    0.005506    0.086851
C      2.883866    0.936811    0.349254
C      4.282285    0.618598    0.702577
O      4.996252    1.523131    1.210868
N      4.858857   -0.669280    0.464944
H     -1.856588    0.374916   -1.582577
H     -2.256684   -1.336265   -1.229019
H     -2.078043    0.920490    0.883226
H     -3.686967    2.442251   -0.001909
H     -1.567165   -1.137296    1.848649
H     -2.812575   -1.952486    1.058002
H     -0.060514   -1.681243   -0.517148
H      2.205381   -1.044895    0.142934
H      2.603841    1.983733    0.342846
H      5.833923   -0.866362    0.782397
H      4.371581   -1.401847   -0.094615
