16

C     -0.916481    1.062803    0.991112
C     -0.709315    0.382682   -0.367353
C     -1.327468   -1.020340   -0.385394
C      0.751092    0.346570   -0.748740
C      1.670860   -0.305920   -0.035905
O      2.999445   -0.298047   -0.444499
H     -2.002263    1.168117    1.201237
H     -0.464908    2.077950    0.982388
H     -0.454061    0.470339    1.809095
H     -1.240737    0.992268   -1.131205
H     -0.875552   -1.666041    0.397411
H     -2.421259   -0.955614   -0.202089
H     -1.169641   -1.494087   -1.377953
H      1.060717    0.875817   -1.642131
H      1.396922   -0.845346    0.862233
H      3.702649   -0.791153    0.091792
