46

C      6.090325   -1.542529   -1.129964
C      5.339280   -1.163598    0.124237
C      4.293420   -0.310389    0.087934
C      3.795595    0.331759   -1.182465
N      2.631919    1.171893   -0.908978
C      1.347105    0.620292   -0.584930
C      0.251864    1.436114   -0.321391
C     -0.945904    0.884803   -0.019792
N     -1.141292   -0.454656    0.033291
C     -0.073543   -1.268548   -0.221615
N      1.152109   -0.733077   -0.525812
N     -1.848134    1.854455    0.182647
C     -1.145710    2.997693   -0.027086
N      0.162613    2.779574   -0.335965
C     -3.283780    1.733074    0.447033
C     -4.043751    1.386921   -0.842599
C     -4.541108   -0.021060   -0.589669
C     -4.541021   -0.102007    0.931051
O     -3.505795    0.724026    1.411482
C     -4.335355   -1.535266    1.440114
O     -5.368614   -2.374602    0.999253
O     -5.828550   -0.238720   -1.106965
O     -5.097169    2.294099   -1.075675
C      5.756048   -1.755867    1.450991
O      6.216347   -0.749247    2.310925
H      6.926542   -2.237863   -0.908912
H      5.405402   -2.044899   -1.844784
H      6.518640   -0.634778   -1.604361
H      3.780739   -0.069983    1.016824
H      3.523675   -0.444958   -1.929167
H      4.604933    0.961553   -1.610433
H      2.743440    2.209168   -0.973113
H     -0.196356   -2.342096   -0.184637
H     -1.581429    3.986738    0.031968
H     -3.651506    2.696735    0.865889
H     -3.373605    1.396099   -1.730871
H     -3.817825   -0.755112   -1.018238
H     -5.506989    0.283035    1.331522
H     -4.291446   -1.535356    2.553021
H     -3.367156   -1.934090    1.069479
H     -6.168123   -2.150568    1.543578
H     -5.724179   -0.320968   -2.090690
H     -5.698160    2.280864   -0.284618
H      4.880994   -2.255290    1.918844
H      6.542016   -2.533591    1.323771
H      7.113495   -0.482861    1.978876
