42

C     -3.942963   -1.226604    0.255944
C     -2.835229   -1.448671   -0.804054
C     -2.398332   -0.126100   -1.462604
C     -1.821865    0.864955   -0.415860
C     -2.366745    0.623888    1.015274
C     -3.836440    0.128966    1.013205
C     -4.357661   -0.059655    2.428301
O     -3.562040   -0.180849    3.398360
O     -5.726415   -0.161649    2.665470
O     -4.645349    1.077633    0.355071
O     -0.396841    0.753569   -0.407926
C      0.454151    1.704148    0.170880
O     -0.015125    2.758792    0.677866
C      1.909031    1.488052    0.187459
C      2.464298    0.374698   -0.310162
C      3.923713    0.106846   -0.303489
C      4.883883    1.134465   -0.201670
C      6.248896    0.830508   -0.211471
C      6.675040   -0.497885   -0.332036
C      5.729750   -1.520206   -0.448096
C      4.364242   -1.220739   -0.439565
O      8.032392   -0.810998   -0.341551
O     -3.485997    0.468555   -2.127724
O     -3.280256   -2.343703   -1.790239
H     -4.941741   -1.291957   -0.230958
H     -3.887733   -2.078647    0.970685
H     -1.938341   -1.882523   -0.300858
H     -1.598784   -0.350834   -2.208797
H     -2.093180    1.897825   -0.732881
H     -2.284731    1.566059    1.600543
H     -1.728405   -0.134175    1.522812
H     -6.398383   -0.110009    1.909355
H     -4.577080    1.935570    0.852027
H      2.519934    2.253842    0.645207
H      1.818956   -0.401420   -0.705704
H      4.592936    2.173523   -0.138515
H      6.974919    1.629781   -0.132655
H      6.053412   -2.548679   -0.546191
H      3.649241   -2.029532   -0.530984
H      8.742129   -0.092259   -0.260417
H     -3.601722   -0.013441   -2.987968
H     -3.315567   -3.241142   -1.366686
