21

C     -2.007444   -0.641429   -0.352269
C     -1.150741    0.605611   -0.076370
C      0.234475    0.268676    0.544605
C      1.111083   -0.657586   -0.339159
C      2.449205   -0.928283    0.305769
O      2.756598   -2.104875    0.633320
O      3.356376    0.100691    0.550157
O      1.297245   -0.133205   -1.630194
O      0.053527   -0.335689    1.801368
O     -0.999549    1.334843   -1.267223
O     -3.305613   -0.266061   -0.726685
H     -1.566410   -1.226909   -1.185775
H     -2.045460   -1.299159    0.545861
H     -1.706416    1.232361    0.660772
H      0.781622    1.230743    0.683638
H      0.590844   -1.633430   -0.446858
H      3.151923    1.061912    0.307205
H      1.698570    0.769912   -1.537828
H     -0.213020    0.382417    2.433337
H     -0.707185    2.248458   -1.010705
H     -3.779630   -0.008997    0.107033
