48

C     -3.828099    2.857320   -1.537540
C     -2.435950    2.926757   -0.985024
C     -1.658197    1.848765   -0.739749
C     -2.144752    0.430430   -1.006499
C     -2.327604   -0.408786    0.256217
C     -2.684535    0.185199    1.417071
C     -2.245539   -1.941530    0.189910
C     -1.177908   -2.415026    1.177171
O     -1.530454   -2.954454    2.260623
O      0.190028   -2.165998    0.990533
C      0.826347   -1.975754   -0.270197
C      2.177133   -1.354553   -0.070979
C      3.236197   -1.679139   -0.786388
C      4.425439   -0.914204   -0.346062
N      3.965612   -0.053505    0.773129
C      2.514225   -0.300247    0.941994
C      1.800133    1.052790    0.735036
C      2.816370    1.904481   -0.002062
C      4.142941    1.389043    0.516835
O      0.559785    0.955299    0.025352
C     -0.310957    2.043768   -0.136620
O      0.042555    3.189898    0.258217
O      4.626818   -0.396888    1.911032
C     -3.632805   -2.542809    0.522477
O     -1.915716   -2.355475   -1.115744
H     -4.253068    3.880593   -1.607451
H     -3.814688    2.415938   -2.556219
H     -4.476751    2.254772   -0.867054
H     -2.061491    3.920330   -0.768972
H     -3.102084    0.403435   -1.562794
H     -1.408323   -0.036646   -1.687777
H     -2.836872   -0.392970    2.322262
H     -2.832275    1.256882    1.492929
H      0.250703   -1.301838   -0.921792
H      0.918146   -2.960184   -0.778164
H      3.238349   -2.415662   -1.584070
H      5.216710   -1.626309   -0.021158
H      4.809464   -0.335679   -1.214630
H      2.278982   -0.694995    1.957592
H      1.613033    1.501688    1.737531
H      2.746585    1.724648   -1.097741
H      2.690626    2.987178    0.214229
H      4.969087    1.610519   -0.194423
H      4.376636    1.925600    1.465921
H     -3.970213   -2.274479    1.545475
H     -3.599831   -3.651609    0.455473
H     -4.389999   -2.174758   -0.203037
H     -1.793792   -3.341836   -1.104860
