45

C     -5.411325    0.971440   -2.205647
C     -5.462127    0.697839   -0.722682
C     -4.655675   -0.212985   -0.131562
C     -3.656481   -1.071496   -0.869907
C     -2.404512   -1.235002   -0.039534
C     -1.400732   -0.243218   -0.075591
C     -0.242339   -0.378274    0.726147
C     -0.099863   -1.507931    1.553655
C     -1.101996   -2.482337    1.588004
C     -2.255092   -2.347517    0.809713
O     -3.255392   -3.317628    0.881935
O      1.031313   -1.651058    2.359158
C      0.803408    0.666279    0.734016
O      0.488047    1.853249    1.022345
C      2.203688    0.318906    0.414721
C      3.186642    1.230650    0.432280
C      4.603002    0.925474    0.110627
C      5.456861    1.987445   -0.233256
C      6.803525    1.751801   -0.526844
C      7.319281    0.454601   -0.472642
C      6.481717   -0.610407   -0.119932
C      5.133887   -0.379487    0.174795
O      8.663801    0.235276   -0.764741
O     -1.570633    0.853858   -0.927744
C     -6.467774    1.457647    0.103193
H     -6.185950    1.711603   -2.499107
H     -5.597090    0.034397   -2.773372
H     -4.418749    1.387477   -2.480304
H     -4.769645   -0.403005    0.933613
H     -3.382374   -0.644915   -1.856476
H     -4.124578   -2.055664   -1.082491
H     -0.989959   -3.343262    2.235205
H     -3.170848   -4.125353    1.487824
H      1.155156   -2.453967    2.965281
H      2.409663   -0.704209    0.132068
H      2.939839    2.262324    0.657729
H      5.079457    3.002035   -0.281627
H      7.447493    2.579741   -0.794387
H      6.875758   -1.617276   -0.065917
H      4.526979   -1.221858    0.474590
H      9.069132   -0.693234   -0.728352
H     -0.866861    1.566344   -1.066251
H     -6.311900    2.549648   -0.034699
H     -7.494410    1.194990   -0.233000
H     -6.382344    1.227943    1.189165
