33

C      0.973963   -1.432727    0.464738
C      1.722743   -2.153791   -0.603604
N      1.561273   -1.627425   -1.763078
O      0.733322   -0.542063   -1.661308
C      0.278345   -0.285279   -0.332522
C     -1.245125   -0.363248   -0.279836
C     -2.015168   -0.138693   -1.440246
C     -3.411885   -0.156329   -1.382791
C     -4.061145   -0.376629   -0.167263
C     -3.315108   -0.570030    0.996096
C     -1.918366   -0.553450    0.945354
C      0.726944    1.104385    0.111788
C      0.771089    1.448052    1.479436
C      1.130450    2.738405    1.878916
C      1.430172    3.710115    0.923238
C      1.361628    3.396230   -0.434836
C      1.002960    2.107468   -0.840886
C      2.560656   -3.337985   -0.385119
O      2.687497   -3.817502    0.773088
O      3.217008   -3.933592   -1.457942
H      0.257244   -2.137314    0.936972
H      1.697415   -1.065529    1.222969
H     -1.541259    0.057903   -2.393158
H     -3.991626    0.009033   -2.281763
H     -5.142615   -0.387194   -0.125077
H     -3.819545   -0.726488    1.940883
H     -1.366814   -0.688129    1.865921
H      0.526659    0.720971    2.241930
H      1.169867    2.986683    2.931704
H      1.705567    4.709366    1.234882
H      1.579201    4.154993   -1.175466
H      0.935851    1.901451   -1.901233
H      3.798803   -4.751658   -1.321788
