46

C     -2.310590    1.789192    1.345553
C     -3.018250    0.881423    0.374644
C     -4.318955    0.444490    0.669521
C     -5.015942   -0.395589   -0.217441
C     -4.399362   -0.779250   -1.416452
C     -3.089858   -0.375427   -1.716598
C     -2.387032    0.443170   -0.810272
N     -1.043959    0.851277   -1.114771
C      0.108953    0.380405   -0.399155
N      1.318812    0.949865   -0.646919
C      2.445887    0.532684   -0.010591
N      2.367118   -0.466455    0.909767
C      1.184775   -1.072780    1.186004
C      0.023971   -0.666584    0.531172
N      3.693064    1.189005   -0.279480
C      4.973993    0.699552    0.152233
C      5.976577    1.614915    0.507000
C      7.238156    1.164616    0.908032
C      7.515419   -0.207150    0.942795
C      6.528672   -1.126205    0.566418
C      5.266482   -0.676502    0.166086
C      8.814848   -0.670812    1.353436
N      9.859502   -1.043574    1.683571
C     -2.444344   -0.824148   -2.999605
C     -6.400021   -0.861006    0.048548
C     -6.945426   -0.915343    1.268111
C     -8.289549   -1.396697    1.443840
N     -9.370832   -1.783874    1.585599
H     -1.670196    1.185658    2.021398
H     -1.681728    2.528741    0.806734
H     -3.038251    2.359153    1.961708
H     -4.790687    0.792301    1.578460
H     -4.937202   -1.411359   -2.113818
H     -0.894940    1.465667   -1.946573
H      1.146704   -1.871430    1.914642
H     -0.914133   -1.160635    0.747228
H      3.655360    2.121941   -0.749512
H      5.775319    2.678604    0.482306
H      7.996801    1.885509    1.188492
H      6.737594   -2.189334    0.573647
H      4.531382   -1.402018   -0.155770
H     -1.474516   -1.319028   -2.780728
H     -2.266412    0.054546   -3.654291
H     -3.082807   -1.547612   -3.549888
H     -6.982832   -1.216260   -0.795268
H     -6.391566   -0.633640    2.151993
