47

C     -3.285425   -1.606645    1.185503
C     -2.619201   -0.225623    1.075813
C     -3.031342    0.757521    2.233189
C     -2.134710    2.009035    2.290803
C     -1.063846    2.159171    1.474625
C     -0.808481    1.114811    0.403940
C     -1.069214   -0.260552    1.012136
C     -0.402486   -1.242813    0.023015
C      0.807288   -0.458054   -0.580757
C      0.609654    1.047875   -0.167161
C      0.875809    2.081005   -1.305113
C      2.039953    1.676306   -2.249210
C      2.209380    0.133683   -2.395470
C      0.876692   -0.562150   -2.112806
C      3.066492   -0.399018   -1.275101
C      4.403972   -0.355052   -1.231916
C      2.222877   -0.933792   -0.165864
O      2.692520   -0.242796   -3.661714
C     -0.057040   -2.556851    0.678585
O     -0.297142   -3.637828    0.077106
O      0.561341   -2.585355    1.926076
O     -1.821402    1.233323   -0.596150
C     -2.904825    0.464881   -0.216918
O     -3.992298    0.427823   -0.850977
O     -3.035012    0.110632    3.481894
H     -4.383738   -1.490993    1.304147
H     -2.887422   -2.155387    2.065062
H     -3.098235   -2.215966    0.276649
H     -4.071192    1.104639    2.046308
H     -2.344147    2.770241    3.035672
H     -0.430724    3.037306    1.555167
H     -0.596106   -0.349635    2.016768
H     -1.120784   -1.459289   -0.799716
H      1.305945    1.299888    0.664558
H     -0.032881    2.204955   -1.931598
H      1.087873    3.077286   -0.860162
H      2.986726    2.130648   -1.882162
H      1.843782    2.120776   -3.249628
H      0.015333   -0.080835   -2.626871
H      0.915723   -1.630884   -2.427527
H      4.937974   -0.744461   -0.370890
H      4.975776    0.075291   -2.046735
H      2.538499   -0.544525    0.826214
H      2.317472   -2.040353   -0.174879
H      3.484685    0.321013   -3.860348
H      0.808824   -3.464741    2.363389
H     -2.096938   -0.114514    3.712169
