44

C      5.085317   -0.430783   -0.958916
C      3.609347   -0.725812   -0.742931
O      3.419074   -1.183424    0.577776
C      2.050570   -1.455464    0.812676
N      1.300745   -0.204350    1.084269
C      0.321769    0.293382    0.237141
C     -0.449313    1.427663    0.642297
C     -0.075320    2.074457    1.837543
O     -0.665948    3.119638    2.221404
N      0.932994    1.585081    2.593242
C      1.602142    0.461537    2.245936
O      2.512394    0.037225    3.012396
C     -1.639378    1.957285   -0.176997
C     -2.939315    1.997795    0.641313
C     -1.326178    3.320319   -0.805839
C      0.055805   -0.349255   -1.123810
C     -1.144190   -1.271535   -1.115490
C     -1.992052   -1.312772   -2.236660
C     -3.091087   -2.176397   -2.263109
C     -3.346772   -3.018104   -1.178497
C     -2.500484   -3.001629   -0.067693
C     -1.400042   -2.139871   -0.036278
H      5.248366   -0.069310   -1.996225
H      5.684560   -1.352408   -0.800117
H      5.424301    0.351795   -0.247252
H      3.041852    0.214574   -0.923128
H      3.300820   -1.502731   -1.478531
H      1.990960   -2.102230    1.714808
H      1.605105   -2.104576    0.033094
H      1.192177    2.078915    3.478534
H     -1.878685    1.285674   -1.018927
H     -3.093622    1.026872    1.159260
H     -2.937027    2.813818    1.391515
H     -3.804447    2.167590   -0.035257
H     -1.204525    4.108152   -0.034498
H     -0.391849    3.255604   -1.403458
H     -2.151506    3.623174   -1.485256
H     -0.069867    0.455224   -1.879386
H      0.924494   -0.893029   -1.530482
H     -1.805695   -0.672148   -3.089744
H     -3.743153   -2.195040   -3.126786
H     -4.197662   -3.686624   -1.200889
H     -2.695790   -3.659183    0.769559
H     -0.758885   -2.149099    0.834349
