26

C      4.135443    1.531762    1.284263
C      2.989906    1.114735    1.968260
C      1.861935    0.694008    1.255959
C      1.876321    0.689096   -0.146216
C      3.028113    1.108444   -0.828184
C      4.154467    1.528593   -0.113375
C      0.702921    0.251266   -0.908768
C     -0.592314   -0.226410   -0.979870
C      0.115772    0.026016   -2.137138
O      0.179448    0.040325   -3.393235
C     -1.836300   -0.680101   -0.350020
C     -2.912749   -1.082518   -1.154306
C     -4.105123   -1.517503   -0.566783
C     -4.227513   -1.552453    0.825181
C     -3.157490   -1.152395    1.630800
C     -1.963761   -0.716891    1.045948
H      5.007458    1.857032    1.836751
H      2.975880    1.117448    3.050539
H      0.985647    0.375149    1.800055
H      3.054353    1.110224   -1.911205
H      5.041570    1.851542   -0.642746
H     -2.829343   -1.059657   -2.234189
H     -4.933779   -1.827317   -1.190341
H     -5.150548   -1.889187    1.279129
H     -3.252966   -1.179718    2.708608
H     -1.147348   -0.411490    1.682965
