21

C      3.520717   -0.126912   -0.086622
C      2.129081    0.304714   -0.416321
O      1.946063    1.322936   -1.137247
N      1.011026   -0.429503    0.101682
C     -0.375068   -0.036754   -0.171914
C     -1.335152   -1.188866    0.176869
C     -2.741649   -0.886885   -0.254472
O     -3.101176   -1.131243   -1.436208
O     -3.644694   -0.300720    0.627822
C     -0.715412    1.200364    0.612583
O     -0.488563    1.250195    1.851755
O     -1.306840    2.284399   -0.028280
H      4.262377    0.480124   -0.648203
H      3.653498   -1.195273   -0.356880
H      3.699167   -0.000128    1.001409
H      1.202836   -1.264334    0.701874
H     -0.474569    0.178705   -1.259666
H     -0.997314   -2.114583   -0.338555
H     -1.313418   -1.391643    1.270016
H     -3.378573   -0.075983    1.579013
H     -1.552340    3.121388    0.486730
