40

C      3.728865   -1.801411   -0.616228
C      4.122866   -0.688364    0.356853
C      2.822578   -0.003680    0.619815
N      1.797474   -0.569796   -0.040088
C      2.256003   -1.606485   -0.762462
C      1.473756   -2.397112   -1.617107
C      0.093263   -2.274052   -1.843056
C     -0.586967   -2.966133   -2.828913
C     -1.902665   -2.554375   -2.764946
C     -1.976358   -1.625935   -1.742872
N     -0.762534   -1.480687   -1.164743
C     -3.152734   -0.939078   -1.397298
C     -3.235092    0.139564   -0.510011
C     -4.460066    0.870962   -0.195712
C     -4.115481    1.847727    0.630232
C     -2.673021    1.733571    0.831629
N     -2.189548    0.694227    0.128451
C     -1.917419    2.546612    1.683424
C     -0.537769    2.423199    1.920879
C      0.134708    3.115137    2.911364
C      1.447960    2.693426    2.864209
C      1.528204    1.760184    1.846259
C      2.705887    1.072070    1.512318
N      0.322858    1.620240    1.255091
H      3.947979   -2.803865   -0.189142
H      4.237589   -1.672687   -1.596146
H      4.537828   -1.110085    1.297905
H      4.845557    0.015372   -0.109838
H      2.000431   -3.145026   -2.199176
H     -0.170874   -3.676338   -3.531961
H     -2.709150   -2.880283   -3.409263
H     -0.546210   -0.945780   -0.305352
H     -4.066362   -1.227033   -1.904672
H     -5.459111    0.668228   -0.558798
H     -4.784641    2.579261    1.063937
H     -2.456917    3.295244    2.252241
H     -0.285201    3.829853    3.607517
H      2.249268    3.017667    3.515804
H      3.609641    1.366413    2.034009
H      0.125403    1.079248    0.394968
