36

C      3.655051   -0.252039   -1.220184
C      2.353213   -0.010412   -0.770903
C      2.071808    0.025910    0.608831
C      3.116129   -0.173804    1.518239
C      4.417825   -0.414883    1.070530
C      4.701950   -0.457735   -0.304366
N      6.043071   -0.706799   -0.763972
O      6.301124   -0.745743   -1.985024
O      7.064822   -0.907018    0.135952
O      0.787474    0.267184    1.127731
C     -0.430721    0.358720    0.384317
C     -0.979152   -1.059800    0.106004
C     -2.354128   -0.963208   -0.585675
C     -3.285234   -0.028519    0.201610
C     -2.558960    1.314039    0.452260
O     -1.356686    1.090518    1.170017
C     -3.429695    2.298747    1.248177
O     -4.632962    2.563720    0.577861
O     -3.633166   -0.633807    1.423562
O     -2.943384   -2.235120   -0.681379
O     -0.085027   -1.765194   -0.714830
H      3.842714   -0.276962   -2.286038
H      1.582684    0.144533   -1.510938
H      2.916276   -0.144190    2.582003
H      5.201265   -0.567447    1.801446
H     -0.243790    0.907184   -0.565879
H     -1.093858   -1.582991    1.085784
H     -2.217365   -0.532152   -1.607193
H     -4.195106    0.148646   -0.420683
H     -2.341552    1.801655   -0.527798
H     -2.867782    3.246920    1.409980
H     -3.660873    1.881013    2.250859
H     -4.409718    3.164941   -0.179997
H     -4.559689   -0.348954    1.637637
H     -2.553567   -2.675830   -1.481005
H     -0.222990   -2.731125   -0.532136
