26

C      0.383440    1.313144    1.086798
C      1.488841    2.001596    0.585296
C      2.370767    1.380791   -0.305900
C      2.160592    0.031666   -0.674315
C      1.034548   -0.647125   -0.175865
C      0.148047   -0.015616    0.709898
C     -1.072903   -0.742476    1.217025
C     -2.323709   -0.399295    0.388517
C     -2.188509   -0.892463   -1.034241
O     -2.313387   -2.118381   -1.296133
O     -1.874003   -0.007469   -2.061939
N     -3.514567   -0.964163    1.028220
N      3.083946   -0.663802   -1.526532
O      2.669059   -1.532194   -2.321775
O      4.438363   -0.553445   -1.312173
O      3.417935    2.139799   -0.830669
H     -0.296498    1.819618    1.760759
H      1.648782    3.033366    0.871996
H      0.858151   -1.676601   -0.463524
H     -1.248793   -0.456675    2.277562
H     -0.900290   -1.841710    1.207867
H     -2.441665    0.707123    0.376085
H     -1.732382    0.979331   -1.882611
H     -4.355863   -0.702286    0.463816
H     -3.450942   -2.008723    1.033539
H      4.011041    1.815992   -1.582873
