28

C      3.666987    1.955703    0.009138
C      2.835027    0.715969    0.092221
N      1.477247    0.808582    0.070993
C      0.676753   -0.290792    0.144002
C      1.258412   -1.575239    0.245348
C      2.654351   -1.687561    0.268438
C      3.446186   -0.540443    0.191799
C      0.439373   -2.711187    0.320872
C     -0.951843   -2.578193    0.296301
C     -1.537753   -1.307937    0.195960
C     -0.720162   -0.157253    0.119327
N     -1.294890    1.073586    0.022027
C     -2.645531    1.239886   -0.004594
C     -3.486697    0.122311    0.069349
C     -2.929636   -1.153756    0.169814
C     -3.224198    2.614473   -0.112558
H      3.020299    2.855810   -0.064359
H      4.299679    2.044388    0.917239
H      4.318701    1.910593   -0.888661
H      3.130614   -2.657709    0.345374
H      4.525494   -0.628881    0.209768
H      0.874724   -3.700321    0.398785
H     -1.569113   -3.466701    0.355622
H     -4.563176    0.239958    0.049253
H     -3.583422   -2.015875    0.226799
H     -3.841112    2.690539   -1.032582
H     -2.416562    3.375529   -0.160691
H     -3.859753    2.824520    0.773309
