33

C      3.973473   -0.966708   -1.034817
C      3.354006    0.106878   -0.134121
C      1.938440   -0.230901    0.419208
C      1.535568    0.901106    1.383658
C      0.896757   -0.341883   -0.741084
C     -0.542221   -0.676853   -0.281404
C     -1.466605    0.554609   -0.312338
C     -2.829596    0.297470    0.368762
C     -3.670871   -0.731830   -0.401070
C     -3.608097    1.612955    0.499938
O      1.993070   -1.424294    1.168533
H      4.047434   -1.938963   -0.505825
H      3.394780   -1.088677   -1.972443
H      5.001579   -0.654602   -1.315507
H      3.313602    1.060882   -0.704976
H      4.051208    0.264470    0.718459
H      2.306376    1.032960    2.173348
H      1.423861    1.863289    0.838702
H      0.582018    0.664262    1.899904
H      1.212161   -1.153033   -1.430375
H      0.905897    0.591991   -1.346348
H     -0.538346   -1.130626    0.732803
H     -0.957013   -1.440989   -0.973647
H     -1.625691    0.867994   -1.367996
H     -0.964707    1.397134    0.208276
H     -2.651984   -0.091531    1.396046
H     -3.186778   -1.729815   -0.376627
H     -4.671838   -0.839042    0.068940
H     -3.805234   -0.417656   -1.458400
H     -4.574222    1.438778    1.020180
H     -3.026291    2.346416    1.098145
H     -3.812883    2.048438   -0.501890
H      2.002149   -2.192230    0.540296
