32

C      2.144409   -0.717816    0.707590
C      3.531585   -1.096793    0.159772
C      4.416125    0.111911   -0.179024
N      4.638686    0.945717    0.999017
C      1.245173   -0.065978   -0.353530
C     -0.170537    0.157757    0.185803
N     -1.007746    0.776785   -0.850815
C     -2.413316    0.862825   -0.427416
C     -3.165370   -0.420604   -0.807170
C     -4.675493   -0.307320   -0.566256
N     -4.973984   -0.257270    0.862949
H      1.656455   -1.650128    1.067563
H      2.250581   -0.039629    1.581928
H      3.412647   -1.726127   -0.748975
H      4.054695   -1.716915    0.920080
H      5.393306   -0.253770   -0.566316
H      3.947163    0.717276   -0.983221
H      5.236953    0.410829    1.670028
H      5.197713    1.777061    0.699434
H      1.670520    0.914971   -0.654128
H      1.191167   -0.720359   -1.251159
H     -0.124631    0.815796    1.083534
H     -0.595111   -0.824816    0.486432
H     -0.659444    1.754414   -0.993992
H     -2.894443    1.718796   -0.952011
H     -2.494682    1.058458    0.665611
H     -2.769290   -1.283863   -0.231110
H     -2.997781   -0.626414   -1.887010
H     -5.165164   -1.203688   -1.006913
H     -5.087234    0.590417   -1.079906
H     -4.791877    0.714352    1.203695
H     -6.001075   -0.415874    0.979175
