50

C      2.782367   -1.291191   -0.769662
C      2.395051   -0.263052    0.342929
C      1.640191   -0.977302    1.484907
C      0.249504   -1.477474    1.019131
C     -0.614827   -0.360780    0.350605
C      0.188396    0.414708   -0.763428
C      1.518852    0.896965   -0.149027
C      2.456771    1.760109   -0.982399
C      3.816474    1.622162   -0.273618
C      3.652977    0.513441    0.788115
O      4.802891   -0.290488    0.852745
C     -0.628414    1.585298   -1.390141
C     -2.022883    1.126394   -1.861098
C     -2.720007    0.394668   -0.740357
C     -3.711381    1.027411   -0.082651
C     -4.172400    0.584245    1.239353
O     -5.139514    1.169424    1.794835
C     -3.438737   -0.497534    1.962208
C     -2.896798   -1.503277    0.949736
C     -2.021257   -0.847705   -0.170856
C     -1.882530   -1.918866   -1.286869
O     -0.723186    2.694643   -0.527339
H      3.434121   -2.083962   -0.344980
H      1.910513   -1.809438   -1.209911
H      3.338636   -0.810281   -1.600391
H      1.499022   -0.282563    2.342542
H      2.236935   -1.838735    1.855963
H      0.375433   -2.338764    0.334373
H     -0.263777   -1.857817    1.925035
H     -0.812840    0.369556    1.164826
H      0.425709   -0.266509   -1.600730
H      1.246214    1.527028    0.733869
H      2.516957    1.380545   -2.025691
H      2.120093    2.819548   -0.998986
H      4.102934    2.579847    0.213307
H      4.600154    1.352221   -1.015376
H      3.478354    0.998799    1.778388
H      4.703234   -0.857055    1.661577
H     -0.083165    1.928782   -2.296285
H     -1.919467    0.457062   -2.740029
H     -2.604841    2.008317   -2.209395
H     -4.136465    1.939726   -0.484573
H     -4.128566   -1.018316    2.661361
H     -2.612573   -0.056146    2.557338
H     -3.779582   -1.997842    0.483040
H     -2.354717   -2.311370    1.479425
H     -1.199634   -1.620511   -2.103076
H     -2.873365   -2.119350   -1.749427
H     -1.510228   -2.879203   -0.872401
H     -1.240629    2.424631    0.273089
