13

C     -1.002860   -0.932153    0.492279
C     -0.399924    0.297126   -0.138299
C     -1.198246    1.254967   -0.620746
C      1.070912    0.469198   -0.236287
C      1.947380   -0.428420    0.214927
H     -2.113880   -0.904218    0.485839
H     -0.678942   -1.835227   -0.066357
H     -0.667621   -1.012893    1.547567
H     -2.276330    1.167172   -0.568452
H     -0.788391    2.147277   -1.078275
H      1.463608    1.368516   -0.697265
H      3.008393   -0.241082    0.112034
H      1.635900   -1.350265    0.686813
