28

C      3.550257    0.024058   -1.794979
C      2.179925   -0.217946   -1.902472
C      1.357110   -0.182675   -0.763678
C      1.937070    0.064843    0.500491
C      3.319128    0.313433    0.600214
C      4.117921    0.295094   -0.550297
O      3.894395    0.571332    1.843738
O      1.145302    0.034946    1.650475
C     -0.094384   -0.431838   -0.914240
O     -0.490609   -1.283291   -1.756664
N     -1.053606    0.307001   -0.141010
C     -2.476247   -0.049506   -0.123023
C     -3.302743    1.066979    0.535929
O     -4.671185    0.759894    0.504216
C     -2.671065   -1.347920    0.615354
O     -2.091700   -1.540802    1.717359
O     -3.519166   -2.329745    0.110870
H      4.173277    0.004818   -2.679918
H      1.757758   -0.416507   -2.880145
H      5.181551    0.483956   -0.479001
H      4.886743    0.751157    1.942951
H      1.525664    0.198489    2.574785
H     -0.730247    1.151093    0.384357
H     -2.827351   -0.161023   -1.172640
H     -2.990286    1.194007    1.595043
H     -3.117982    2.033288    0.013076
H     -4.973530    0.905421   -0.430203
H     -4.015999   -2.198553   -0.761994
