19

C     -0.582233    0.984058   -0.691225
C      0.797003    0.923008   -0.896513
C      1.607959    0.079814   -0.112206
C      0.994172   -0.723706    0.883618
C     -0.390108   -0.645762    1.082920
C     -1.182179    0.213448    0.310606
C     -2.672346    0.255078    0.510536
O     -3.284793   -0.770840   -0.221275
O      1.709045   -1.616632    1.686385
C      3.071989    0.069157   -0.345024
O      3.575333    0.696799   -1.314829
H     -1.182295    1.637184   -1.312978
H      1.229691    1.544712   -1.670552
H     -0.851005   -1.266235    1.842331
H     -3.085179    1.245816    0.211752
H     -2.911354    0.117738    1.586694
H     -3.285638   -0.480263   -1.170828
H      2.696891   -1.801336    1.591205
H      3.745047   -0.462039    0.308271
