48

C      4.041245    1.356985    2.505595
C      4.624867    2.496239    1.908335
C      4.583594    2.670267    0.512914
C      3.954043    1.685858   -0.247581
C      3.388507    0.579640    0.332926
C      3.410187    0.381376    1.713573
C      2.843481   -0.173108   -0.688737
C      3.100131    0.536677   -1.858156
N      3.786045    1.669662   -1.581387
C      2.047306   -1.439955   -0.567878
C      0.601648   -1.158587   -0.125124
C     -0.115132   -2.460727    0.111219
O      0.120171   -3.112716    1.163393
N     -1.003597   -3.006908   -0.870436
C     -1.664621   -2.188642   -1.888909
C     -0.918883   -0.908383   -2.140848
O     -1.099956   -0.283969   -3.220435
N     -0.082487   -0.342272   -1.130034
C     -3.127205   -1.908973   -1.487496
C     -3.241916   -1.213553   -0.157094
C     -3.280120   -1.826787    1.092233
N     -3.270782   -0.898817    2.075861
C     -3.221211    0.294547    1.459785
C     -3.166613    1.551378    2.059277
C     -3.095369    2.677867    1.219977
C     -3.079395    2.524570   -0.183678
C     -3.134074    1.243556   -0.761191
C     -3.203204    0.144673    0.096179
H      4.075895    1.235442    3.580073
H      5.103207    3.242605    2.528198
H      5.022641    3.542962    0.046838
H      2.955405   -0.490904    2.164731
H      2.787308    0.247557   -2.853224
H      4.101844    2.391983   -2.266258
H      2.547720   -2.101747    0.171970
H      2.044982   -1.970357   -1.545445
H      0.614650   -0.595483    0.834251
H     -1.343578   -3.986631   -0.736789
H     -1.675578   -2.766965   -2.838475
H      0.200701    0.659024   -1.229439
H     -3.623861   -1.298237   -2.272070
H     -3.677218   -2.873521   -1.435175
H     -3.285732   -2.894198    1.270210
H     -3.276736   -1.078424    3.104231
H     -3.173223    1.658727    3.136253
H     -3.049969    3.668476    1.653281
H     -3.022910    3.398363   -0.819513
H     -3.122209    1.121433   -1.835930
