37

C     -1.618088    3.576354   -1.369740
C     -1.524262    3.332750    0.004148
C     -0.980309    2.130468    0.466437
C     -0.527863    1.166754   -0.446889
C     -0.623571    1.414574   -1.824219
C     -1.168029    2.617879   -2.283244
N      0.033268   -0.073508    0.028121
C      1.388852   -0.169177    0.269114
C      2.272271    0.918351    0.066759
C      3.644734    0.784993    0.322179
C      4.150695   -0.435814    0.782559
C      3.295653   -1.518378    0.987774
C      1.926284   -1.392055    0.735036
N      1.109353   -2.451982    0.939123
C     -0.222140   -2.374573    0.707587
C     -0.785805   -1.163692    0.241332
C     -2.181684   -1.118531    0.009857
C     -2.983591   -2.246274    0.237493
C     -2.400798   -3.431945    0.698850
C     -1.027290   -3.495348    0.932538
N     -4.392726   -2.185945   -0.000779
N      4.525494    1.892536    0.113161
H     -2.039328    4.507375   -1.726312
H     -1.872895    4.075275    0.710156
H     -0.909451    1.945743    1.530813
H     -0.276311    0.675168   -2.534665
H     -1.241163    2.807534   -3.346267
H      1.909617    1.873824   -0.288370
H      5.208938   -0.548129    0.982472
H      3.700056   -2.457832    1.344399
H     -2.659721   -0.215825   -0.346742
H     -3.011998   -4.307732    0.877429
H     -0.588698   -4.419169    1.289596
H     -4.999356   -3.019789    0.165356
H     -4.840499   -1.307404   -0.345116
H      4.161076    2.809192   -0.230122
H      5.549284    1.804331    0.300179
