14

C     -1.458429   -0.442247    0.189482
C     -0.075499   -0.131436   -0.391023
C      0.032068    1.342507   -0.793526
C      1.003132   -0.490572    0.592411
O      1.059828    0.080558    1.715351
O      1.944951   -1.459692    0.260880
H     -1.525036   -1.517563    0.461490
H     -2.245666   -0.225929   -0.563980
H     -1.653582    0.170654    1.095941
H      0.059927   -0.748741   -1.306466
H     -0.121898    2.004725    0.085770
H     -0.733354    1.584948   -1.561374
H      1.034631    1.547438   -1.226655
H      2.678928   -1.714652    0.910855
