19

C     -1.254853    1.118279   -0.119572
C     -2.384331    0.112118    0.138720
C     -2.108183   -1.187179   -0.560979
O     -3.060474   -1.893163   -0.984531
O     -0.795725   -1.652609   -0.675123
C      0.293340   -0.865342   -0.287389
C      1.572230   -1.429750   -0.230458
C      2.665287   -0.651444    0.161750
C      2.485149    0.695802    0.488631
C      1.211622    1.269697    0.423177
C      0.106406    0.490418    0.048275
H     -1.338613    1.504452   -1.158520
H     -1.373784    1.976641    0.577018
H     -3.348114    0.539936   -0.212858
H     -2.463575   -0.083060    1.229745
H      1.717352   -2.471594   -0.486117
H      3.653091   -1.091387    0.208159
H      3.334701    1.298267    0.783218
H      1.088474    2.319918    0.656854
