48

C     -4.440017    0.632020   -0.315788
C     -5.852330    0.806106    0.287519
C     -5.987999   -0.407133    1.133853
O     -6.931159   -0.602807    1.945342
N     -4.939638   -1.332267    0.951696
C     -4.014510   -0.833385   -0.048010
C     -2.572763   -0.949000    0.453283
O     -1.677707   -0.453793   -0.540017
C     -0.282965   -0.410801   -0.400159
C      0.474362    0.112719   -1.452898
C      1.867465    0.179224   -1.362941
C      2.531016   -0.281136   -0.211843
C      1.768609   -0.808286    0.845768
C      0.375103   -0.872753    0.754493
C      4.011707   -0.211417   -0.114807
C      4.741796   -1.268880    0.453796
C      6.134820   -1.202501    0.545022
C      6.831959   -0.079532    0.064522
C      6.099831    0.982332   -0.494989
C      4.706526    0.915533   -0.586042
C      8.311783   -0.014835    0.168677
N      8.919734   -0.702759    1.084118
N      9.079863    0.785936   -0.738526
C     -6.932600    0.859177   -0.809114
C     -8.290571    1.121974   -0.233424
O     -9.135993    0.190670   -0.155902
O     -8.609423    2.391933    0.237099
H     -4.408895    0.852731   -1.405658
H     -3.748487    1.342287    0.190469
H     -5.890864    1.722764    0.917401
H     -4.912451   -2.288798    1.370590
H     -4.134868   -1.433093   -0.977281
H     -2.344258   -2.018057    0.655980
H     -2.453107   -0.367398    1.393965
H     -0.020222    0.467971   -2.348160
H      2.426704    0.574716   -2.201541
H      2.248780   -1.154800    1.752345
H     -0.180065   -1.280494    1.588104
H      4.237164   -2.157458    0.811907
H      6.668331   -2.039045    0.979062
H      6.595500    1.880095   -0.839181
H      4.170084    1.757967   -1.004490
H      9.959153   -0.688128    1.185593
H     10.113205    0.879421   -0.619351
H      8.645509    1.227052   -1.578457
H     -6.696390    1.683020   -1.516644
H     -6.941549   -0.090941   -1.388789
H     -9.520175    2.583850    0.636653
