36

C     -1.979084    1.361379   -1.651626
C     -1.080314    2.629185   -1.598918
N     -0.366210    2.819559   -0.326616
C      0.854601    2.001541   -0.198943
C      0.647697    0.508059   -0.565405
C     -0.640037   -0.029125    0.046564
C     -0.630473   -0.892351    1.162586
C     -1.821787   -1.337650    1.739655
C     -3.050990   -0.916053    1.217925
C     -3.078838   -0.043178    0.125659
C     -1.887900    0.422194   -0.458220
O     -4.242074   -1.363915    1.787656
O     -1.762225   -2.199981    2.834329
C      1.881336   -0.353849   -0.302029
C      2.634513   -0.250748    0.888019
C      3.745712   -1.072617    1.098972
C      4.115962   -2.013429    0.136961
C      3.369974   -2.141945   -1.035338
C      2.257362   -1.324186   -1.252249
H     -3.030675    1.696823   -1.789643
H     -1.729719    0.779862   -2.565256
H     -1.719121    3.522807   -1.767714
H     -0.356071    2.616734   -2.443891
H     -1.004779    2.672083    0.489696
H      1.646365    2.429492   -0.851708
H      1.210510    2.103538    0.845353
H      0.512354    0.486236   -1.668413
H      0.295654   -1.234568    1.598772
H     -4.037110    0.275673   -0.265956
H     -5.144624   -1.073537    1.429885
H     -2.596102   -2.551207    3.289679
H      2.355372    0.437671    1.672003
H      4.315214   -0.985996    2.015371
H      4.975482   -2.649576    0.304323
H      3.651517   -2.879038   -1.776266
H      1.688505   -1.449888   -2.165218
