28

C      0.254144   -0.297042    0.200101
C     -0.840243   -1.037134    0.984064
C     -2.166729   -0.261990    1.025705
C     -2.877841   -0.234709   -0.333335
C     -4.217286    0.419419   -0.207385
O     -5.239549   -0.275677    0.037106
O     -4.325941    1.802156   -0.316958
C      1.597714   -1.034084    0.307230
C      2.688255   -0.410237   -0.577914
C      3.165821    0.955687   -0.056190
N      4.294131    1.456044   -0.838563
H      0.359089    0.730274    0.609019
H     -0.035667   -0.228506   -0.869907
H     -1.007169   -2.044595    0.543394
H     -0.495173   -1.181199    2.031576
H     -1.985532    0.776946    1.379726
H     -2.830510   -0.759054    1.767433
H     -2.275793    0.336062   -1.070848
H     -3.007991   -1.270714   -0.715733
H     -5.223072    2.262094   -0.218074
H      1.454885   -2.088214   -0.017616
H      1.937464   -1.051528    1.366125
H      2.315459   -0.307386   -1.620475
H      3.553930   -1.107734   -0.598077
H      2.340609    1.696245   -0.113756
H      3.477066    0.866242    1.007335
H      4.008050    1.517714   -1.842918
H      5.081879    0.770919   -0.773093
