26

C      2.969538   -1.515401   -1.040575
C      2.697798   -1.685686    0.454058
C      1.315466   -1.158875    0.867710
C      1.245633    0.375094    0.865538
C     -0.112039    0.846017    1.314610
O     -0.264187    1.129368    2.534436
C     -1.274438    0.955418    0.387605
C     -2.490619    1.495702    0.852488
C     -3.593749    1.606299    0.000782
C     -3.501525    1.179280   -1.324419
C     -2.305884    0.639918   -1.800803
C     -1.198307    0.526768   -0.954737
H      3.057396   -0.441906   -1.306160
H      2.156725   -1.979042   -1.639113
H      3.926969   -2.014289   -1.300092
H      3.494210   -1.176545    1.039217
H      2.746176   -2.770044    0.693933
H      0.536851   -1.585261    0.198756
H      1.101925   -1.521172    1.897484
H      1.476536    0.789917   -0.136312
H      2.015709    0.774806    1.561504
H     -2.590914    1.836919    1.875221
H     -4.521595    2.024173    0.369721
H     -4.356908    1.265332   -1.982003
H     -2.236698    0.306661   -2.828357
H     -0.294071    0.096547   -1.360622
