32

C     -2.641309    0.945227   -0.021377
C     -2.173941   -0.508648   -0.273980
C     -3.304390   -1.272248   -1.002792
C     -1.894091   -1.204350    1.089085
O     -3.056512   -1.298759    1.872862
C     -0.877941   -0.558539   -1.160302
C      0.307191    0.165840   -0.553376
O      0.423522    1.413904   -0.696773
N      1.281347   -0.562273    0.209831
C      2.433661    0.083917    0.834378
C      3.493655    0.419090   -0.216667
C      4.691257    1.047757    0.428295
O      4.783777    2.301807    0.493686
O      5.685789    0.257209    0.996624
O     -1.114239   -0.112870   -2.475978
H     -3.585511    0.958455    0.563674
H     -2.844680    1.478130   -0.972674
H     -1.881891    1.514923    0.553784
H     -3.539370   -0.796726   -1.979026
H     -4.238547   -1.275934   -0.401205
H     -3.007125   -2.326736   -1.189806
H     -1.518477   -2.235074    0.910843
H     -1.095550   -0.664810    1.649632
H     -3.083904   -0.493370    2.452434
H     -0.585651   -1.627602   -1.254384
H      1.133148   -1.581986    0.383654
H      2.871960   -0.608244    1.586812
H      2.106377    1.004289    1.366173
H      3.073980    1.115817   -0.973786
H      3.804742   -0.509873   -0.741413
H      5.626421   -0.753870    0.976391
H     -1.273693    0.865022   -2.454619
