44

C     -1.929983   -2.624483    1.141115
O     -2.170311   -1.255034    0.853823
C     -3.454950   -0.774349    0.590204
C     -3.654550    0.514777    0.269253
C     -2.500119    1.439257    0.168126
C     -2.418462    2.540271    1.036567
C     -1.321132    3.403037    0.982432
C     -0.299185    3.178559    0.058596
C     -0.372833    2.092586   -0.816148
C     -1.467848    1.211212   -0.765071
O     -1.567077    0.133358   -1.659014
C     -0.495481   -0.679947   -2.051982
N     -0.562516   -1.325933   -3.244902
C      0.442006   -2.139648   -3.661348
N      1.540316   -2.320185   -2.882908
C      1.661189   -1.699017   -1.680857
C      0.619834   -0.878220   -1.226285
O      2.807403   -1.934137   -0.908275
C      3.348769   -1.040833    0.031583
C      3.292828    0.352492   -0.164992
C      3.841129    1.221935    0.781264
C      4.464184    0.711908    1.922013
C      4.546572   -0.669361    2.116158
C      3.996694   -1.547818    1.172271
C      4.086625   -2.969582    1.390098
N      4.158432   -4.111309    1.564797
C     -5.030207    1.029234    0.044219
O     -6.029688    0.336368    0.374804
O     -5.249116    2.276237   -0.539879
H     -2.250665   -3.253007    0.283484
H     -2.485551   -2.924192    2.054777
H     -0.844086   -2.775264    1.311228
H     -4.293343   -1.459232    0.652069
H     -3.200591    2.722903    1.763409
H     -1.263124    4.246789    1.657820
H      0.547706    3.851166    0.014933
H      0.414671    1.946758   -1.544129
H      0.367481   -2.644297   -4.614691
H      0.660377   -0.432722   -0.241557
H      2.838826    0.765649   -1.056074
H      3.788701    2.291923    0.626399
H      4.889766    1.387169    2.653032
H      5.038621   -1.052876    3.002047
H     -4.491309    2.857856   -0.874815
