24

C     -2.633832   -0.463806    0.158965
C     -1.257828    0.121844   -0.200858
C     -1.364892    1.653165   -0.283978
C     -0.175964   -0.309853    0.830824
C      0.025222   -1.803025    0.886934
O      0.340541   -2.348669    1.978195
O     -0.086806   -2.579652   -0.263484
N      1.110875    0.355018    0.585484
C      1.903842    0.186128   -0.600929
O      1.532010   -0.590375   -1.520975
C      3.186813    0.937185   -0.746827
H     -2.955399   -0.119901    1.165556
H     -3.393936   -0.145568   -0.586266
H     -2.603770   -1.573247    0.152812
H     -0.984650   -0.252855   -1.210725
H     -1.603166    2.083642    0.712420
H     -2.162248    1.945865   -1.000194
H     -0.412755    2.093247   -0.647726
H     -0.534670    0.010867    1.835739
H      0.063854   -3.580759   -0.231612
H      1.474110    0.994291    1.328608
H      3.881969    0.645396    0.067689
H      2.987390    2.027287   -0.684543
H      3.663289    0.713775   -1.725110
