20

C     -3.569055    0.355961    0.222537
O     -2.350932    1.005028   -0.127371
C     -1.082999    0.410763   -0.040529
C      0.031968    1.166709   -0.416484
C      1.330547    0.631996   -0.343952
C      1.503672   -0.705124    0.084448
C      0.384061   -1.455342    0.472339
C     -0.897666   -0.906104    0.412868
N      2.791148   -1.335028    0.077276
N      2.454258    1.464421   -0.673975
O      2.348188    2.337130   -1.560426
O      3.572006    1.466209    0.128227
H     -3.719921   -0.541596   -0.413754
H     -4.413498    1.055583    0.055806
H     -3.553317    0.066694    1.294593
H     -0.114352    2.188520   -0.744503
H      0.503653   -2.479453    0.803560
H     -1.737896   -1.517194    0.713006
H      3.605127   -0.918683   -0.424412
H      2.915007   -2.290489    0.480746
