26

C     -2.249413    1.228860   -0.910727
C     -1.949922    0.202167    0.188005
C     -2.820268   -1.050255    0.027303
C     -0.471178   -0.152261    0.220885
C      0.133565   -0.747222   -0.830208
C      1.607666   -1.061571   -0.807420
C      2.379075    0.008901   -0.063984
C      3.668707    0.231318   -0.352317
C      1.704230    0.807734    1.032665
C      0.361549    0.183849    1.439698
H     -1.609655    2.127240   -0.775754
H     -3.312120    1.547572   -0.853677
H     -2.062415    0.802818   -1.919244
H     -2.233878    0.669508    1.156284
H     -2.654786   -1.530693   -0.960207
H     -3.894425   -0.779384    0.111221
H     -2.583668   -1.783131    0.828164
H     -0.430997   -0.994811   -1.723797
H      1.966783   -1.146969   -1.856175
H      1.765065   -2.036993   -0.300406
H      4.174770   -0.342039   -1.123212
H      4.234132    0.990076    0.180502
H      1.537900    1.846217    0.672541
H      2.360207    0.848991    1.929695
H     -0.174060    0.883945    2.115615
H      0.553135   -0.753867    2.005543
