26

C      3.767471   -1.169305    0.554071
C      3.961053    0.200058    0.372141
C      2.874474    1.028389    0.082979
C      1.577737    0.491198   -0.023431
C      1.382736   -0.890380    0.162164
C      2.486569   -1.715213    0.447651
C      0.026906   -1.464777    0.028277
O     -0.097335   -2.711368   -0.110451
C     -1.163484   -0.569908   -0.038859
C     -2.489803   -1.061946    0.104695
C     -3.573685   -0.219524   -0.144941
C     -3.375174    1.118657   -0.462122
C     -2.083863    1.648084   -0.524345
C     -0.963399    0.811200   -0.306398
C      0.422889    1.359638   -0.342110
O      0.624625    2.570293   -0.633476
O     -1.921361    3.005431   -0.804285
O     -2.780549   -2.361583    0.526683
H      4.611419   -1.809394    0.776836
H      4.955020    0.620682    0.453988
H      3.049098    2.088000   -0.055499
H      2.359003   -2.780708    0.592822
H     -4.583816   -0.600483   -0.059750
H     -4.233756    1.755179   -0.635438
H     -2.713866    3.616929   -0.962794
H     -2.118910   -2.959149    1.001595
