20

C     -3.049600   -0.491378   -0.659734
C     -1.695782   -0.837027   -0.100027
O     -1.161663   -1.865258   -0.488298
C     -0.979339    0.011910    0.938401
C      0.392268    0.489924    0.428449
O      1.257690   -0.613225    0.288625
P      2.722640   -0.072559   -0.398798
O      2.486960    0.392130   -1.819579
O      3.822689   -1.357482   -0.416288
O      3.379920    1.191506    0.518580
O     -1.758393    1.106972    1.354163
H     -3.501981    0.398437   -0.180056
H     -3.739761   -1.347568   -0.506861
H     -2.957526   -0.297003   -1.748736
H     -0.808603   -0.626546    1.832384
H      0.806120    1.202701    1.176832
H      0.246504    1.018176   -0.542579
H      3.350517   -2.087712   -0.890508
H      2.960597    2.015804    0.163745
H     -1.773255    1.768198    0.612712
