37

C      4.941803    0.542194   -0.363548
C      3.444136    0.480226   -0.299272
C      2.805701   -0.672016    0.170916
C      1.406235   -0.730489    0.279091
C      0.616913    0.382104   -0.131053
C      1.287142    1.556459   -0.541613
C      2.678430    1.600455   -0.630386
C     -0.913468    0.379108    0.036494
C     -1.620877    1.062460   -1.177412
C     -3.158128    0.997057   -1.106864
C     -3.647969   -0.387057   -0.783215
O     -4.669016   -0.807404   -1.305720
C     -2.950285   -1.209386    0.263049
C     -1.425696   -1.099456    0.087193
C     -0.675641   -1.920468    1.140563
C      0.800258   -2.031291    0.758380
C     -1.227857    1.169731    1.334862
H      5.365578   -0.459214   -0.590858
H      5.339080    0.890723    0.612559
H      5.272022    1.242578   -1.160144
H      3.401859   -1.531061    0.457480
H      0.745656    2.460927   -0.773707
H      3.159811    2.516658   -0.950198
H     -1.286201    0.574950   -2.120284
H     -1.351544    2.135601   -1.251567
H     -3.574828    1.323965   -2.084587
H     -3.534344    1.700958   -0.334839
H     -3.254356   -2.274196    0.155533
H     -3.265518   -0.875536    1.273271
H     -1.199756   -1.570285   -0.899764
H     -0.779860   -1.471066    2.149794
H     -1.100731   -2.946849    1.194391
H      1.364702   -2.407991    1.639320
H      0.905445   -2.782016   -0.055186
H     -0.645753    0.782084    2.196444
H     -0.950899    2.238516    1.209641
H     -2.302046    1.139028    1.601237
