36

C     -4.108968   -0.717171   -0.770976
C     -3.648990    0.015937    0.504727
C     -4.866402    0.451896    1.330837
C     -2.715012    1.227057    0.226500
C     -1.352724    0.784392   -0.263461
O     -1.182869    0.482504   -1.477116
N     -0.249909    0.720258    0.658995
C      0.988490    0.058520    0.360562
C      2.198019    0.643315    0.772147
C      3.423090    0.019492    0.491076
C      4.638361    0.619849    0.869832
C      5.851346   -0.014710    0.587483
C      5.861028   -1.244468   -0.085819
C      4.659644   -1.844897   -0.479590
C      3.433992   -1.223105   -0.192341
C      2.219741   -1.817691   -0.579756
C      1.007472   -1.179239   -0.303665
N     -3.333105    2.195163   -0.690029
H     -4.730438   -0.051361   -1.413693
H     -4.720297   -1.609554   -0.500354
H     -3.237780   -1.080361   -1.353181
H     -3.082719   -0.719504    1.124249
H     -4.532432    0.900613    2.294799
H     -5.471228    1.209213    0.777018
H     -5.508765   -0.430716    1.562968
H     -2.558924    1.747079    1.200603
H     -0.310493    1.274524    1.540383
H      2.182130    1.594096    1.298310
H      4.647368    1.576331    1.377204
H      6.784625    0.447302    0.888017
H      6.802770   -1.730303   -0.304329
H      4.687896   -2.793350   -1.002512
H      2.208664   -2.774213   -1.095573
H      0.080757   -1.657899   -0.604611
H     -3.300231    1.844352   -1.676596
H     -2.764109    3.076649   -0.666675
