21

C      1.121186   -1.564961    0.130209
C      2.393918   -1.206580   -0.323660
C      2.580011   -0.012245   -1.024818
C      1.484872    0.824839   -1.272206
C      0.210342    0.469339   -0.819790
C      0.015717   -0.732033   -0.109405
N     -1.282464   -1.132283    0.372745
C     -2.494627   -0.320695    0.261858
C     -2.428693    0.850334    1.190447
O     -2.284787    0.665901    2.428660
O     -2.539751    2.143012    0.688289
O      3.853712    0.332838   -1.471048
H      0.996747   -2.493991    0.672325
H      3.236530   -1.858187   -0.129946
H      1.619742    1.751144   -1.816172
H     -0.612742    1.136072   -1.031985
H     -1.374877   -2.063003    0.840228
H     -3.376485   -0.937202    0.539488
H     -2.640704    0.010697   -0.788059
H     -2.498630    2.945272    1.305377
H      4.020982    1.191731   -1.982144
