14

C     -1.487178   -0.993036   -0.061026
C     -0.129572   -1.364056   -0.114536
C      0.815597   -0.344791   -0.042547
C      2.188075   -0.347908   -0.064831
O      2.579368    0.910814    0.036512
N      1.566810    1.735500    0.123259
C      0.465720    0.967381    0.075246
C     -0.866127    1.370537    0.131055
C     -1.853908    0.368351    0.061236
H     -2.254631   -1.754194   -0.113813
H      0.166000   -2.401036   -0.207955
H      2.843634   -1.204430   -0.148585
H     -1.133571    2.415068    0.224617
H     -2.900216    0.641798    0.101370
