21

C     -2.204080   -1.317609    0.328220
C     -0.901910   -0.584823    0.145428
C      0.313717   -1.288623    0.310958
C      1.502128   -0.588892    0.136567
C      1.528095    0.731279   -0.183406
C      0.362134    1.468012   -0.357178
C     -0.877570    0.806303   -0.191844
C     -2.153579    1.583721   -0.374955
N      2.797594    1.162736   -0.293112
C      3.521050    0.043885   -0.024968
N      2.756756   -1.042267    0.241309
H     -2.793473   -1.278796   -0.611515
H     -2.039956   -2.385274    0.587383
H     -2.787382   -0.850602    1.148986
H      0.331696   -2.341017    0.565862
H      0.414939    2.519249   -0.612094
H     -2.744209    1.565303    0.564627
H     -2.752483    1.137183   -1.195879
H     -1.952616    2.645078   -0.634043
H      4.602829    0.023847   -0.024517
H      3.076319   -2.008692    0.474170
