19

C     -0.435042   -0.392574    1.513750
C     -0.577261    0.191316    0.090337
C     -1.914517   -0.284513   -0.516458
C      0.603310   -0.289503   -0.808418
C      1.947336    0.156408   -0.289414
O      2.300139    1.363145   -0.382006
O      2.793342   -0.766292    0.318397
O      0.442804    0.123035   -2.144703
O     -0.565107    1.599253    0.154403
H     -0.373865   -1.501694    1.479273
H     -1.307523   -0.110260    2.141395
H      0.477864   -0.000057    2.009529
H     -2.078656    0.178503   -1.512644
H     -1.922092   -1.389966   -0.631286
H     -2.765987    0.005042    0.136288
H      0.602720   -1.401977   -0.812642
H      3.695066   -0.483030    0.682780
H      0.400362    1.114818   -2.156660
H     -1.322894    1.888345    0.728078
