26

C      3.516963    1.500087    0.018003
C      2.191825    1.939086   -0.007948
C      1.133706    1.012429   -0.015474
C      1.420807   -0.369503    0.003443
C      2.760732   -0.798381    0.029528
C      3.805426    0.134421    0.036773
O      5.133268   -0.286414    0.062578
C      0.313510   -1.354732   -0.004272
O      0.569653   -2.590288    0.012637
C     -1.094100   -0.891745   -0.031807
C     -1.381130    0.490190   -0.050723
C     -0.273913    1.475399   -0.043008
O     -0.530152    2.710934   -0.059919
C     -2.720992    0.919158   -0.076809
C     -3.764668   -0.010340   -0.084075
C     -3.477392   -1.379229   -0.065291
C     -2.152287   -1.818332   -0.039338
O     -5.083646    0.437415   -0.110017
H      4.322248    2.223737    0.023540
H      1.995941    3.003939   -0.022115
H      2.998230   -1.854888    0.044281
H      5.377450   -1.269811    0.076683
H     -2.961177    1.975143   -0.091601
H     -4.280937   -2.104743   -0.070785
H     -1.956430   -2.883195   -0.025172
H     -5.862937   -0.210339   -0.115919
