10

C     -1.415021    0.236467   -0.006100
S      0.078844   -0.004112    0.972016
O      0.028267   -1.479859    1.344137
C      1.412739    0.081549   -0.236126
H     -1.451712   -0.506871   -0.829464
H     -2.305887    0.110266    0.642977
H     -1.415920    1.260138   -0.433898
H      1.235388   -0.654091   -1.048043
H      1.455772    1.102811   -0.667504
H      2.377530   -0.146299    0.262005
