26

C     -0.578920   -1.935284   -0.425140
C      0.810521   -1.886254    0.215193
N      1.457322   -0.594190   -0.054278
C      2.815597   -0.551100   -0.210388
C      3.466438    0.660021   -0.440358
C      2.722447    1.833161   -0.505067
C      1.341783    1.790552   -0.323876
C      0.707646    0.558049   -0.070135
C     -0.769214    0.457775    0.125916
C     -1.545443    1.569851    0.508452
C     -2.919960    1.425876    0.684100
C     -3.517696    0.185807    0.486851
C     -2.727303   -0.905752    0.130379
N     -1.374788   -0.767684   -0.020541
H     -0.477132   -1.940856   -1.532211
H     -1.074542   -2.882412   -0.115709
H      0.717472   -2.024840    1.314345
H      1.414519   -2.727342   -0.192482
H      3.406185   -1.458416   -0.161256
H      4.540358    0.686716   -0.572746
H      3.215535    2.777128   -0.698708
H      0.786050    2.713020   -0.408403
H     -1.104277    2.537748    0.696808
H     -3.521825    2.276792    0.976345
H     -4.586114    0.068389    0.614279
H     -3.204660   -1.866758   -0.021369
