47

C      7.668736    0.807466    0.592560
O      6.978443   -0.269383   -0.033892
C      5.587989   -0.320710   -0.213183
C      5.042396   -1.430036   -0.867540
C      3.663509   -1.527128   -1.075863
C      2.801810   -0.507450   -0.628121
C      3.349802    0.600156    0.037947
C      4.729530    0.697494    0.240169
C      1.336320   -0.590933   -0.833533
C      0.795751   -1.185961   -1.975207
C     -0.585744   -1.229351   -2.130966
O     -1.052924   -1.762942   -3.173463
C     -1.427287   -0.678209   -1.132706
C     -0.807050   -0.099874    0.000237
O      0.522403   -0.079080    0.084091
C     -1.588745    0.444506    1.045551
C     -3.003859    0.421079    0.946626
C     -3.626652   -0.111111   -0.213601
C     -2.837825   -0.690565   -1.239824
O     -3.403523   -1.282364   -2.391093
C     -4.776329   -1.582976   -2.631908
O     -5.023832   -0.083707   -0.398506
C     -6.004289    0.557536    0.410817
O     -3.835790    0.913423    1.972107
C     -3.462245    1.325710    3.282926
O     -1.011153    1.017290    2.195564
C      0.370059    1.240402    2.456357
H      7.320892    0.927976    1.640026
H      7.503587    1.747663    0.024458
H      8.755253    0.585055    0.602854
H      5.691748   -2.224058   -1.215028
H      3.273350   -2.408916   -1.566696
H      2.713122    1.403764    0.382984
H      5.118040    1.571340    0.745101
H      1.435313   -1.588108   -2.751445
H     -5.351485   -0.647004   -2.787470
H     -5.196378   -2.183345   -1.797330
H     -4.852862   -2.184677   -3.561194
H     -6.075561    0.060984    1.400867
H     -6.992170    0.463831   -0.085639
H     -5.772319    1.638114    0.514738
H     -4.382292    1.539519    3.864751
H     -2.866734    2.261412    3.236824
H     -2.905494    0.515904    3.800732
H      0.470148    1.744653    3.439192
H      0.799709    1.908417    1.682449
H      0.914633    0.274192    2.510740
