34

C      3.084800    1.190154   -0.229427
C      3.442595   -0.266960   -0.062345
C      2.564954   -1.162544    0.438881
C      1.175653   -0.815880    0.899671
O      0.381407   -0.401115   -0.207178
C     -1.010235   -0.302159   -0.119377
C     -1.661931    0.954464   -0.138543
C     -0.949140    2.156081   -0.226627
C     -1.638989    3.367215   -0.234503
C     -3.034619    3.357036   -0.151069
O     -3.671419    4.442806   -0.157305
O     -3.697067    2.207176   -0.063778
C     -3.085531    1.025851   -0.052459
C     -3.850356   -0.150566    0.044603
C     -3.177973   -1.368705    0.047702
C     -1.812867   -1.443865   -0.029799
C     -1.491297   -2.783439   -0.030649
C     -2.712640   -3.440544    0.061768
O     -3.702436   -2.567914    0.106770
C      4.813344   -0.747673   -0.463094
H      3.953825    1.784251   -0.580609
H      2.277657    1.293173   -0.983022
H      2.751144    1.618581    0.738708
H      2.872586   -2.200763    0.538944
H      0.728336   -1.713326    1.376676
H      1.211001   -0.008901    1.661927
H      0.130640    2.164276   -0.284506
H     -1.095665    4.301690   -0.302819
H     -4.930499   -0.113217    0.106227
H     -0.509475   -3.232310   -0.100003
H     -2.848195   -4.513359    0.089749
H      4.722523   -1.530131   -1.246133
H      5.333593   -1.176205    0.419651
H      5.436276    0.076819   -0.868032
