24

C     -1.692508    2.074212   -0.160180
N     -1.140068    0.723700   -0.003207
C     -2.062673   -0.376197    0.317432
C     -1.526681   -1.709367   -0.201927
C     -0.138737   -1.980667    0.375320
C      0.794701   -0.827019    0.117879
C      2.179483   -1.056254    0.100634
C      3.067452   -0.000103   -0.103479
C      2.582660    1.294622   -0.281915
C      1.208178    1.541453   -0.250019
C      0.292681    0.487855   -0.037551
H     -1.279286    2.745007    0.622287
H     -1.440558    2.468520   -1.167059
H     -2.798396    2.077341   -0.055721
H     -2.197710   -0.429765    1.419575
H     -3.057782   -0.199111   -0.145864
H     -1.472111   -1.681114   -1.312644
H     -2.217590   -2.528572    0.092541
H      0.261797   -2.909530   -0.086458
H     -0.215342   -2.144392    1.472133
H      2.571293   -2.055808    0.244116
H      4.133669   -0.185596   -0.121975
H      3.274414    2.111571   -0.442559
H      0.873114    2.559214   -0.391359
