24

C     -2.608820   -1.289033    0.593220
C     -1.302821   -0.594913    0.274234
C     -1.276938    0.573878   -0.408117
C      0.024594    1.241884   -0.669012
O      0.046582    2.352160   -1.267124
C      1.300522    0.616958   -0.233395
C      1.279238   -0.595926    0.367275
C     -0.024594   -1.241886    0.669009
O     -0.046582   -2.352163    1.267119
C      2.557867   -1.283839    0.792801
C      2.604971    1.325932   -0.524867
C     -2.554019    1.246942   -0.861152
H     -2.479307   -2.085241    1.354737
H     -3.020557   -1.750881   -0.328506
H     -3.345167   -0.568419    1.006887
H      3.309047   -1.255666   -0.024235
H      2.391409   -2.353246    1.036294
H      2.970412   -0.780871    1.692378
H      3.116541    0.830497   -1.376484
H      2.447242    2.392695   -0.785187
H      3.267904    1.309291    0.365558
H     -3.231785    0.514798   -1.348197
H     -2.359343    2.045786   -1.605852
H     -3.066396    1.701265    0.012615
