18

C      2.496280    0.800577   -0.010718
N      1.410327   -0.168039    0.094432
C      1.519320   -1.503083    0.315885
N      0.318542   -2.141504    0.362075
C     -0.553422   -1.136979    0.157799
C      0.088794    0.043958   -0.002890
C     -0.637705    1.209740   -0.226351
O     -0.067442    2.322639   -0.379443
N     -2.001072    1.111932   -0.275482
C     -2.633238   -0.097395   -0.109716
O     -3.890840   -0.159411   -0.159604
N     -1.904050   -1.235759    0.109434
H      2.471097    1.284202   -1.009688
H      3.478455    0.297816    0.117503
H      2.385917    1.573793    0.778222
H      2.464939   -2.014142    0.443738
H     -2.571838    1.972079   -0.442014
H     -2.374063   -2.160424    0.236818
