22

C     -3.273962    0.349871    0.474579
C     -2.956046   -0.999274    0.611699
C     -1.632368   -1.430110    0.489204
C     -0.593587   -0.507666    0.224545
C     -0.934295    0.865218    0.087352
C     -2.269846    1.280115    0.213593
C      0.059826    1.811202   -0.174379
C      1.388015    1.421163   -0.302943
C      1.762536    0.074500   -0.173857
C      0.768842   -0.902475    0.091961
O      1.167885   -2.239135    0.216374
C      3.200954   -0.279759   -0.322203
O      3.592514   -1.472992   -0.215947
O      4.141408    0.714358   -0.583069
H     -4.301682    0.675695    0.570846
H     -3.740290   -1.717524    0.814427
H     -1.456577   -2.486315    0.606496
H     -2.536949    2.325360    0.110190
H     -0.190795    2.860400   -0.280553
H      2.127487    2.185673   -0.505766
H      0.553406   -3.016601    0.403926
H      5.123526    0.488297   -0.686472
