21

C     -2.410691    1.499249   -0.538514
C     -1.269119    2.257316   -0.283122
C     -0.056968    1.629797    0.015158
C      0.035989    0.220694    0.047635
C     -1.144873   -0.540386   -0.178474
C     -2.353475    0.107036   -0.480607
C     -1.108400   -1.937979   -0.084902
C      0.078675   -2.588981    0.240133
C      1.246633   -1.858119    0.451575
C      1.252911   -0.456829    0.337892
C      2.549086    0.242459    0.493200
O      3.369887   -0.141174    1.369837
O      2.900888    1.280464   -0.364999
H     -3.346487    1.992613   -0.767613
H     -1.325001    3.338104   -0.307560
H      0.787503    2.261755    0.245316
H     -3.256131   -0.464107   -0.663424
H     -2.002620   -2.527124   -0.251424
H      0.096928   -3.668469    0.318465
H      2.160343   -2.394739    0.677742
H      3.794922    1.748419   -0.276313
