18

C      2.712511   -0.307488   -0.169474
C      1.838052    0.083302   -1.184709
C      0.461724    0.141355   -0.943999
C     -0.058607   -0.193719    0.323376
C      0.838121   -0.584645    1.337955
C      2.213037   -0.640744    1.090382
C     -1.519910   -0.138886    0.604575
O     -1.937747   -0.361433    1.773643
C     -2.531035    0.198160   -0.456678
O     -2.447597    1.555444   -0.795381
H      3.777266   -0.351344   -0.358892
H      2.227069    0.343207   -2.160824
H     -0.184607    0.453346   -1.752525
H      0.478214   -0.849958    2.324139
H      2.891914   -0.943410    1.877241
H     -2.345325   -0.418076   -1.360976
H     -3.559404   -0.046047   -0.104562
H     -2.853676    2.060937   -0.043291
