36

C     -2.123327   -1.763174   -0.899829
C     -1.219680   -2.956733   -0.497671
N     -0.360578   -2.657549    0.658341
C      0.866172   -1.933430    0.280721
C      0.571287   -0.609044   -0.471010
C     -0.657512    0.090033    0.106983
C     -0.555146    1.264264    0.882557
C     -1.687631    1.858235    1.444645
C     -2.949056    1.281612    1.250354
C     -3.068286    0.109749    0.496626
C     -1.937087   -0.502511   -0.069096
O     -4.081255    1.874531    1.807524
O     -1.537389    3.023758    2.195988
C      1.803658    0.281326   -0.619783
C      2.080486    0.873892   -1.867984
C      3.193662    1.703083   -2.032806
C      4.039826    1.962837   -0.953885
C      3.769984    1.400523    0.294618
C      2.659006    0.569347    0.466132
H     -1.938680   -1.507358   -1.965394
H     -3.182713   -2.099705   -0.855238
H     -1.876719   -3.817007   -0.238450
H     -0.609157   -3.286861   -1.368720
H     -0.065204   -3.567820    1.083447
H      1.515344   -2.581459   -0.350843
H      1.423142   -1.732754    1.216661
H      0.302857   -0.913731   -1.505766
H      0.397451    1.738818    1.060166
H     -4.050249   -0.324511    0.353675
H     -5.005258    1.477704    1.682367
H     -2.325427    3.493551    2.625343
H      1.434333    0.694657   -2.718383
H      3.398230    2.147388   -2.998361
H      4.899629    2.607454   -1.083017
H      4.417592    1.616568    1.134576
H      2.457692    0.184317    1.455514
