14

C      0.910902   -0.425765   -0.699681
C     -0.457659    0.172493   -0.334898
C     -1.333346   -0.863224    0.320734
O     -2.222511   -1.452198   -0.348749
O     -1.140805   -1.207637    1.653576
N     -0.309521    1.352252    0.526611
O      1.593134   -0.843948    0.451397
H      0.764411   -1.291361   -1.384780
H      1.515188    0.340425   -1.235246
H     -0.946611    0.493067   -1.283265
H      0.257992    2.080107    0.034338
H      0.161634    1.103602    1.426900
H     -1.251509    1.757366    0.734384
H      2.458701   -1.215178    0.138678
