43

C      2.655736   -0.911948    1.623563
C      3.316273    0.467609    1.400202
C      2.629383    1.279114    0.257028
O      1.289396    0.872050    0.016166
C      1.112476   -0.502100   -0.339352
C      2.162013   -1.464151    0.283988
O      1.653914   -2.771887    0.412440
O     -0.180487   -0.912248    0.073103
C     -1.213793   -0.218188   -0.615951
C     -1.822282    0.883406    0.282513
C     -3.295604    1.170828   -0.090961
C     -3.599755    0.757362   -1.549422
O     -3.372697   -0.624324   -1.812530
C     -2.303816   -1.222122   -1.079427
C     -2.843590   -2.074734    0.052467
O     -2.055164   -2.798224    0.716651
O     -4.203400   -2.117129    0.358531
O     -2.855001    1.529833   -2.457835
O     -3.584702    2.534296    0.082092
O     -1.743891    0.502327    1.633956
C      3.437720    1.401251   -1.018354
O      4.256417    2.352707   -1.142175
O      3.333640    0.457696   -2.035524
O      4.708419    0.363036    1.207058
O      3.557894   -1.814837    2.210701
H      1.770919   -0.785724    2.292826
H      3.171696    1.034295    2.347225
H      2.550806    2.320382    0.641875
H      1.190294   -0.614806   -1.444636
H      3.032424   -1.529117   -0.403521
H      1.022403   -2.786003    1.178783
H     -0.842075    0.272342   -1.548617
H     -1.216045    1.807305    0.124490
H     -3.968592    0.571856    0.565864
H     -4.685465    0.938967   -1.726485
H     -1.800401   -1.925953   -1.778113
H     -4.898455   -1.607610   -0.173530
H     -3.300301    2.414879   -2.522688
H     -3.674401    2.688789    1.059053
H     -1.827092    1.332189    2.172828
H      3.895191    0.534471   -2.875011
H      4.867378   -0.277557    0.466450
H      3.672620   -1.528329    3.154277
