49

C      1.595737   -0.145074   -1.025574
C      1.905019    0.629021    0.264278
N      3.100354    0.079369    0.948023
C      4.375846    0.424724    0.273879
C      4.657469    1.905272    0.239600
O      5.189774    2.466949    1.232656
O      4.326830    2.666054   -0.878536
C      3.121259    0.441462    2.381056
C      2.186328   -0.442018    3.151685
O      1.186509    0.053767    3.735127
O      2.411854   -1.813088    3.224318
N      0.247812    0.216778   -1.523460
C     -0.796786   -0.638676   -0.913841
C     -2.089162    0.163220   -0.727694
N     -3.075670   -0.633098    0.038639
C     -3.893034   -1.470592   -0.866066
C     -4.478610   -2.629969   -0.114923
O     -3.720705   -3.412787    0.516519
O     -5.851844   -2.859257   -0.114191
C     -3.938427    0.241476    0.862836
C     -3.200457    0.693521    2.085287
O     -3.182489    1.913915    2.397953
O     -2.552016   -0.240021    2.887731
C      0.186615    0.152459   -2.999693
C      0.821199    1.369609   -3.596909
O      0.317785    2.506721   -3.398492
O      1.972786    1.250815   -4.364795
H      2.374358    0.118736   -1.772847
H      1.678478   -1.241980   -0.848060
H      2.023374    1.710123    0.038017
H      1.020140    0.550593    0.931848
H      5.217530   -0.089845    0.786802
H      4.385390    0.020943   -0.758868
H      3.892137    2.245801   -1.691102
H      4.135253    0.293069    2.813737
H      2.850710    1.512587    2.524975
H      3.206361   -2.237327    2.760409
H     -0.978919   -1.549308   -1.527102
H     -0.488283   -0.996127    0.094408
H     -2.503863    0.480920   -1.710606
H     -1.815846    1.094453   -0.181554
H     -4.696062   -0.867543   -1.346983
H     -3.273623   -1.896792   -1.684823
H     -6.488514   -2.252524   -0.617253
H     -4.294430    1.117428    0.272828
H     -4.837862   -0.308302    1.217133
H     -2.049542    0.048303    3.718408
H     -0.866512    0.124558   -3.355663
H      0.685750   -0.768314   -3.379115
