37

C     -1.713199   -3.425364    1.069628
C     -0.481214   -3.932984    0.677511
C      0.248276   -2.860658    0.197848
C      1.554339   -2.913037   -0.328596
C      2.331812   -1.753803   -0.466889
C      3.202067   -1.472241   -1.506957
C      3.413671   -0.095328   -1.472728
C      2.688420    0.380773   -0.390833
N      2.133266   -0.649546    0.268372
C      2.192674    1.673092   -0.214550
N      1.069205    1.832768    0.498730
C      0.484983    2.972061    0.118929
C     -0.885444    3.215983    0.298628
C     -1.826018    2.212197    0.634868
C     -3.192008    2.333659    0.436720
C     -3.736318    1.069756    0.608184
C     -2.678941    0.221501    0.881689
N     -1.539615    0.933914    0.977928
C     -2.769826   -1.179464    0.990005
C     -1.690125   -2.065831    0.801723
N     -0.514324   -1.745237    0.225715
C      1.341179    3.643503   -0.862058
C      2.376577    2.834013   -1.086998
H     -2.533161   -3.989035    1.495367
H     -0.155740   -4.962669    0.747827
H      1.936024   -3.856383   -0.699486
H      3.498196   -2.143626   -2.302391
H      3.894255    0.493334   -2.243070
H      1.531181   -0.578405    1.119526
H     -1.272123    4.157790   -0.072544
H     -3.724945    3.219973    0.117362
H     -4.771887    0.791356    0.461626
H     -0.645306    0.557453    1.347912
H     -3.748320   -1.610326    1.167404
H     -0.299930   -0.856864   -0.276219
H      1.129406    4.560881   -1.395322
H      3.152913    2.986795   -1.824861
