22

C     -2.309679   -1.058059    0.226749
C     -1.348564    0.145261    0.269944
C      0.070166   -0.234565   -0.228229
C      1.054584    0.953301   -0.127574
C      2.449199    0.504247   -0.489308
O      2.843523    0.596872   -1.683410
C      3.345624   -0.093838    0.514174
O      2.967033   -0.244257    1.705887
O      4.621911   -0.502501    0.147520
O      0.662533    1.990292   -0.993289
O      0.004323   -0.663453   -1.567161
O     -1.300361    0.676142    1.572009
O     -3.565834   -0.701491    0.737690
H     -2.419228   -1.432825   -0.816131
H     -1.901017   -1.887389    0.842835
H     -1.761223    0.928107   -0.403044
H      0.460685   -1.054611    0.423206
H      1.081165    1.329991    0.922244
H      0.046637    2.580419   -0.485259
H     -0.064561   -1.653818   -1.557193
H     -0.926212   -0.025380    2.167370
H     -4.010707   -0.152445    0.040227
