46

C      0.933038    1.157526    0.400922
C      2.110107    0.766236   -0.499068
N      3.329333    0.556617    0.313659
C      4.555184    1.028617   -0.375484
C      4.852193    0.281618   -1.648073
O      4.279962    0.602660   -2.722646
O      5.753916   -0.775361   -1.640404
C      3.441596   -0.840535    0.790938
C      4.381516   -0.927905    1.952468
O      4.067221   -0.417855    3.059676
O      5.615809   -1.547960    1.805672
N     -0.294958    1.308386   -0.415291
C     -1.495645    0.837434    0.313968
C     -1.669076   -0.674585    0.121517
N     -2.854965   -1.154814    0.865937
C     -4.090137   -1.066646    0.054751
C     -5.301618   -1.111295    0.932363
O     -6.113569   -2.069565    0.845708
O     -5.526791   -0.098573    1.855924
C     -2.646783   -2.502801    1.449513
C     -2.398235   -3.569848    0.417016
O     -3.348618   -4.284881    0.003765
O     -1.120133   -3.769279   -0.089152
C     -0.459380    2.705739   -0.871744
C     -1.312648    2.750712   -2.100410
O     -0.910172    2.212949   -3.166499
O     -2.553935    3.378128   -2.062747
H      1.174007    2.095334    0.952883
H      0.810770    0.369912    1.174955
H      2.258020    1.587054   -1.234719
H      1.853475   -0.148875   -1.080579
H      5.428322    0.944351    0.306160
H      4.459179    2.112674   -0.602808
H      3.771991   -1.522588   -0.021558
H      2.455559   -1.217962    1.137608
H     -2.411440    1.338730   -0.066878
H     -1.429206    1.080964    1.399122
H     -0.745023   -1.172733    0.487154
H     -1.753505   -0.909670   -0.964011
H     -4.131256   -1.871255   -0.710965
H     -4.128576   -0.103478   -0.496557
H     -3.523165   -2.787576    2.070634
H     -1.783946   -2.472805    2.149762
H      0.520931    3.158171   -1.138641
H     -0.904417    3.336971   -0.069360
H     -3.144928    3.408060   -2.884483
