24

C     -0.801279   -0.005286    0.244379
C      0.676158   -0.207430   -0.169533
C      1.628075    0.650876    0.693910
C      3.020387    0.626534    0.126523
O      3.828748   -0.282523    0.457731
O      3.402008    1.587230   -0.804759
O      1.638919    0.180220    2.017920
O      1.018395   -1.567759   -0.058766
C     -1.773752   -0.625741   -0.792438
C     -3.206357   -0.271381   -0.478417
O     -3.920015   -1.047307    0.211287
O     -3.739167    0.942274   -0.903759
O     -1.611995   -2.019792   -0.903422
O     -1.019436   -0.558914    1.519406
H     -0.994803    1.094575    0.270859
H      0.776098    0.129641   -1.230204
H      1.269339    1.706679    0.675653
H      4.329906    1.577124   -1.211035
H      2.027055    0.903671    2.576764
H      1.711760   -1.752081   -0.744859
H     -1.541578   -0.188192   -1.787549
H     -3.184264    1.601179   -1.436754
H     -1.768049   -2.420615   -0.008849
H     -1.766151   -0.052982    1.933997
