22

C      0.593470    0.886755    0.107334
C     -0.578615    0.597133   -0.888622
C     -1.548712   -0.545877   -0.493900
C     -2.162988   -0.352339    0.868161
O     -1.663394   -0.904626    1.883406
O     -3.284395    0.454808    1.013165
O     -0.899141   -1.786783   -0.577840
O     -1.313779    1.772446   -1.133582
C      1.677180   -0.238043    0.155244
C      1.397149   -1.243876    1.235538
O      1.368836   -2.473693    0.965806
O      1.251198   -0.831392    2.554927
O      2.944159    0.311519    0.419150
O      1.192438    2.114902   -0.233983
H      0.165311    1.030084    1.122271
H     -0.124669    0.309369   -1.862496
H     -2.378575   -0.536859   -1.239151
H     -1.606108   -2.484453   -0.585148
H     -1.619912    2.125383   -0.257859
H      1.702399   -0.772164   -0.824992
H      3.358344    0.533078   -0.455838
H      1.529803    2.034629   -1.165034
