24

C     -3.151553    1.166882    0.387356
C     -2.103336    1.979268    0.815688
C     -0.782775    1.531695    0.729777
C     -0.486227    0.253079    0.204210
C     -1.567384   -0.570953   -0.215577
C     -2.888146   -0.103302   -0.124016
C     -1.319036   -1.855045   -0.713841
C     -0.016824   -2.337100   -0.790449
C      1.054832   -1.542556   -0.387352
C      0.850139   -0.229526    0.093203
C      2.026984    0.638409    0.525954
C      3.379899    0.102715    0.150278
O      4.088511   -0.478833    1.013566
O      3.845952    0.214242   -1.156420
H     -4.172192    1.520495    0.457112
H     -2.314610    2.961265    1.219258
H     -0.008157    2.195001    1.087575
H     -3.717629   -0.722747   -0.444500
H     -2.135186   -2.491894   -1.034537
H      0.164857   -3.336662   -1.164387
H      2.045627   -1.969455   -0.459197
H      1.983234    0.776585    1.628081
H      1.936174    1.638948    0.052519
H      3.286843    0.659491   -1.874302
