23

C     -2.490263    1.844788    0.160591
C     -1.945433    1.569967   -1.096110
C     -0.976855    0.571657   -1.237271
C     -0.548376   -0.166950   -0.118313
C     -1.097655    0.123610    1.143273
C     -2.065827    1.123277    1.279119
C      0.522062   -1.233079   -0.257246
C      1.901164   -0.598341   -0.520185
C      2.346693    0.248366    0.633356
O      2.211152    1.500404    0.588289
O      2.874751   -0.353708    1.770952
N      0.177682   -2.146090   -1.349309
H     -3.239111    2.618804    0.268180
H     -2.271916    2.132473   -1.961249
H     -0.559880    0.375049   -2.217072
H     -0.774515   -0.419908    2.022358
H     -2.485285    1.340507    2.252953
H      0.586326   -1.827188    0.684414
H      2.654779   -1.401099   -0.671178
H      1.874921    0.011477   -1.449904
H      3.165288    0.203064    2.565743
H     -0.739899   -2.595910   -1.123918
H      0.880197   -2.921171   -1.367473
