32

C      3.093319    0.013758    1.252808
C      4.388715   -0.008412    1.779296
C      5.440616   -0.565353    1.041683
C      5.191857   -1.095113   -0.227045
C      3.898574   -1.074268   -0.757507
C      2.831629   -0.532331   -0.020637
C      1.479063   -0.523933   -0.630852
C      0.344436   -0.412352    0.074635
C     -0.982351   -0.416490   -0.562816
O     -1.095574   -0.510824   -1.816461
O     -2.118456   -0.317536    0.247930
C     -3.451990   -0.242592   -0.262921
C     -3.729697    1.140427   -0.880629
C     -3.464915    2.259475    0.086477
O     -2.305857    2.741330    0.186615
O     -4.481774    2.749454    0.900941
C     -4.433907   -0.544807    0.836061
O     -4.133704   -0.313508    2.037498
O     -5.699999   -1.037595    0.533493
O      6.734172   -0.593319    1.557889
H      2.312820    0.479903    1.837476
H      4.574948    0.414663    2.758317
H      6.002092   -1.522829   -0.803855
H      3.729132   -1.490537   -1.743257
H      1.417607   -0.656756   -1.705039
H      0.369226   -0.338823    1.152691
H     -3.581790   -1.017500   -1.050670
H     -3.090222    1.279828   -1.778326
H     -4.784458    1.191456   -1.228117
H     -5.420626    2.372183    0.852567
H     -5.979762   -1.211417   -0.424451
H      6.946875   -0.216181    2.474088
