27

C      4.756548   -0.148465   -0.488352
C      4.216163   -0.540094    0.739028
C      2.838979   -0.443306    0.960972
C      1.987799    0.030577   -0.049667
C      2.543294    0.446206   -1.274284
C      3.921440    0.348908   -1.492038
N      0.579169    0.143637    0.213502
C     -0.447117   -0.139154   -0.755019
O     -0.139592   -0.527824   -1.914533
C     -1.876163    0.025781   -0.412512
C     -2.735033    0.642375   -1.338991
C     -4.088321    0.821405   -1.041100
C     -4.600704    0.378680    0.179171
C     -3.763653   -0.254809    1.100145
C     -2.404397   -0.446023    0.808613
O     -1.593032   -1.127352    1.715763
H      5.822996   -0.221306   -0.658213
H      4.864572   -0.916417    1.519698
H      2.431536   -0.747552    1.917022
H      1.921522    0.871916   -2.050132
H      4.343367    0.668902   -2.436046
H      0.294250    0.398068    1.185500
H     -2.353318    1.000269   -2.287585
H     -4.739858    1.306313   -1.756587
H     -5.649174    0.519136    0.408343
H     -4.175027   -0.609238    2.036733
H     -1.956245   -1.480633    2.593305
