30

C     -4.469624   -1.008907   -0.289014
C     -3.811994    0.192973    0.392144
C     -2.411343    0.370683   -0.130967
O     -2.229645    0.939763   -1.242264
N     -1.302404   -0.191605    0.588510
C      0.076223    0.086158    0.288160
C      1.040141   -0.909859    0.506268
C      2.395469   -0.661092    0.242110
C      3.359876   -1.660792    0.445338
C      4.707162   -1.400760    0.178235
C      5.101574   -0.145056   -0.291378
C      4.151499    0.859520   -0.496799
C      2.795388    0.610845   -0.233296
C      1.833399    1.611282   -0.428758
C      0.485801    1.353382   -0.163748
N     -4.599449    1.402706    0.150025
H     -5.486878   -1.171971    0.126120
H     -3.869732   -1.927011   -0.109642
H     -4.553337   -0.839012   -1.384172
H     -3.771038    0.000169    1.488349
H     -1.510510   -0.910943    1.317888
H      0.728060   -1.881456    0.872019
H      3.072543   -2.640165    0.809056
H      5.447514   -2.174430    0.335839
H      6.146310    0.050398   -0.495949
H      4.475468    1.827634   -0.859890
H      2.124090    2.595077   -0.777788
H     -0.230798    2.154039   -0.288692
H     -5.542780    1.274182    0.583915
H     -4.150982    2.194249    0.667192
