37

C     -6.370107   -0.008373   -0.474896
C     -5.960407   -1.344416   -0.480492
C     -4.609843   -1.666954   -0.318997
C     -3.657732   -0.649380   -0.149324
C     -2.299334   -0.960261    0.013891
C     -1.351684    0.057850    0.198395
C     -1.770822    1.400108    0.180433
C     -3.121297    1.720061    0.017457
C     -4.073050    0.703871   -0.144013
C     -5.432046    1.014498   -0.308161
N      0.036194   -0.290405    0.339962
C      0.971675    0.449009    1.143748
O      0.558948    1.290787    1.987243
C      2.450733    0.187660    1.034050
C      2.932993    0.392772   -0.417632
C      4.427391    0.318479   -0.516692
C      5.318530    1.325422   -0.221833
N      6.574612    0.859362   -0.370958
C      6.411904   -0.427484   -0.748124
N      5.117654   -0.785887   -0.839449
N      2.747343   -1.160354    1.527714
H     -7.417185    0.235091   -0.600898
H     -6.691373   -2.132010   -0.610544
H     -4.310536   -2.708287   -0.326175
H     -1.974917   -1.994618    0.008735
H     -1.052766    2.204597    0.266634
H     -3.419908    2.761664    0.008704
H     -5.767399    2.044832   -0.308003
H      0.363922   -1.175379   -0.108233
H      2.978197    0.924582    1.682753
H      2.483376   -0.368966   -1.090576
H      2.605314    1.392355   -0.778725
H      5.072547    2.331542    0.091005
H      7.235476   -1.100257   -0.947446
H      4.737450   -1.724314   -1.094577
H      3.778650   -1.246376    1.678039
H      2.477498   -1.870822    0.809003
