20

C     -3.211692    0.632252    0.110824
C     -2.932707   -0.723364    0.299879
C     -1.625965   -1.197964    0.149315
C     -0.581841   -0.316086   -0.174682
C     -0.877375    1.044092   -0.389315
C     -2.185989    1.513910   -0.238528
C      0.784059   -0.859134   -0.354284
C      1.903363   -0.229958    0.045616
C      3.232611   -0.849626   -0.182891
O      3.326995   -2.089156   -0.390124
O      4.396970   -0.084103   -0.184676
O      1.810845    0.993161    0.712579
H     -4.224072    0.997629    0.225110
H     -3.729727   -1.407711    0.560558
H     -1.426668   -2.252630    0.296363
H     -0.108098    1.738487   -0.700514
H     -2.406668    2.560728   -0.402985
H      0.859896   -1.848638   -0.790646
H      4.382450    0.925472   -0.120756
H      2.613614    1.452641    1.122170
