18

C     -2.438952   -0.589472   -0.080020
C     -2.396577    0.772348    0.226965
C     -1.169549    1.410408    0.424856
C      0.029099    0.687537    0.316586
C     -0.010902   -0.694499    0.005179
C     -1.254739   -1.323297   -0.191388
C      1.202314   -1.400407   -0.098632
O      1.215589   -2.631171   -0.373760
C      2.411082   -0.731163    0.105429
C      2.404502    0.630486    0.410184
N      1.229313    1.308378    0.509422
H     -3.392706   -1.078130   -0.232206
H     -3.317299    1.335038    0.311792
H     -1.153906    2.466966    0.662259
H     -1.314389   -2.378047   -0.430348
H      3.352506   -1.261377    0.028803
H      3.342029    1.148636    0.568249
H      1.262585    2.327765    0.739286
