31

C      4.251147   -0.266521   -2.195528
O      2.977084   -0.698993   -1.730036
C      2.276563   -0.101002   -0.672370
C      1.021875   -0.635674   -0.320108
C      0.321150   -0.043023    0.730290
C      0.823503    1.031135    1.416527
C      2.059346    1.588656    1.099598
C      2.791179    1.015311    0.044368
N     -0.026557    1.430644    2.378165
C     -1.090516    0.599356    2.305335
C     -0.908951   -0.334932    1.289546
C     -1.883101   -1.403471    0.872680
C     -2.934142   -0.913453   -0.147900
C     -3.810015    0.166353    0.436167
O     -3.507153    1.382729    0.308972
O     -4.936956   -0.183103    1.169362
N     -2.314183   -0.478980   -1.407473
H      4.189815    0.781569   -2.557433
H      4.568702   -0.915005   -3.037535
H      5.002479   -0.347022   -1.381745
H      0.615732   -1.484832   -0.853749
H      2.445854    2.438448    1.647355
H      3.751641    1.443017   -0.207920
H      0.101871    2.224445    3.044374
H     -1.957122    0.670228    2.949746
H     -1.326252   -2.263366    0.442895
H     -2.404263   -1.785076    1.777734
H     -3.593416   -1.781594   -0.374755
H     -1.698623    0.353173   -1.259768
H     -1.746750   -1.259572   -1.810344
H     -3.059940   -0.229443   -2.097415
