23

C      3.041199    0.153052   -0.405315
C      2.226219   -0.743752   -1.099673
C      0.872599   -0.861481   -0.770283
C      0.319867   -0.079581    0.262613
C      1.150952    0.821270    0.953419
C      2.503981    0.934843    0.619793
C     -1.153127   -0.188359    0.626649
C     -2.062544    0.250452   -0.540765
C     -1.840339    1.687968   -0.901706
O     -2.403428    2.600871   -0.242241
O     -0.975764    2.020000   -1.937120
N     -1.480939   -1.555879    1.050276
H      4.088729    0.242963   -0.662319
H      2.643269   -1.347703   -1.895174
H      0.258603   -1.559148   -1.324498
H      0.753156    1.438586    1.749142
H      3.136232    1.630602    1.156160
H     -1.369384    0.488366    1.485827
H     -1.885709   -0.385918   -1.434215
H     -3.127142    0.119234   -0.248314
H     -2.460130   -1.585599    1.417125
H     -1.400449   -2.226381    0.251852
H     -0.835850   -1.854406    1.817999
