23

C     -3.242792    0.641264   -0.555620
C     -2.863936   -0.112991    0.557154
C     -1.528380   -0.490353    0.727631
C     -0.555852   -0.116251   -0.217993
C     -0.949772    0.646095   -1.334989
C     -2.286613    1.020664   -1.500269
C      0.893863   -0.527605   -0.024253
C      1.784248    0.717912    0.175017
C      3.173546    0.343673    0.591810
O      3.415692    0.042560    1.790219
O      4.193220    0.291988   -0.350215
N      1.355227   -1.344138   -1.156731
H     -4.277110    0.932488   -0.685406
H     -3.605743   -0.405476    1.289078
H     -1.255514   -1.074004    1.597932
H     -0.224842    0.953728   -2.077223
H     -2.581144    1.606515   -2.361405
H      0.969849   -1.147046    0.899469
H      1.833104    1.314080   -0.761591
H      1.343382    1.367307    0.963173
H      0.684381   -2.129165   -1.325067
H      1.436509   -0.769762   -2.026773
H      2.288674   -1.761484   -0.938262
