31

C      4.406863    1.806482   -1.185139
O      3.056435    1.769799   -0.735747
C      2.393406    0.606993   -0.317152
C      1.053291    0.720530    0.102036
C      0.391768   -0.433532    0.519684
C      1.007656   -1.656885    0.527337
C      2.330049   -1.811723    0.119914
C      3.028119   -0.666815   -0.305006
N      0.168498   -2.617133    0.953438
C     -1.003503   -1.997416    1.221328
C     -0.898825   -0.632823    0.969124
C     -1.993827    0.387221    1.089355
C     -2.615641    0.723564   -0.281182
C     -3.569675    1.878099   -0.132661
O     -3.292426    2.997405   -0.638635
O     -4.751912    1.723045    0.581551
N     -3.311529   -0.436453   -0.854344
H      5.087422    1.462578   -0.377800
H      4.527235    1.167300   -2.085242
H      4.671718    2.849903   -1.452487
H      0.551709    1.679872    0.098960
H      2.806919   -2.783372    0.127454
H      4.055466   -0.778864   -0.622926
H      0.372386   -3.636833    1.048799
H     -1.891348   -2.508561    1.570192
H     -1.565569    1.308549    1.541457
H     -2.777347    0.010366    1.782839
H     -1.801120    1.030016   -0.977204
H     -2.624745   -1.193005   -1.075555
H     -4.028100   -0.806433   -0.187649
H     -3.783370   -0.161874   -1.746939
