28

C      1.753745    0.745137    0.929804
C      1.431640    0.262278   -0.500286
C      0.146800    0.938081   -1.067141
C     -1.100923    0.579609   -0.281611
C     -1.888909   -0.517508   -0.675760
C     -3.028096   -0.870329    0.053844
C     -3.392128   -0.134773    1.183922
C     -2.617221    0.955008    1.587101
C     -1.477037    1.312073    0.861077
O      0.298882    2.335592   -1.106711
N      1.323181   -1.214474   -0.564637
C      2.619382   -1.883106   -0.397080
H      2.784351    0.450836    1.215501
H      1.704465    1.852404    0.991570
H      1.044819    0.310610    1.665388
H      2.270518    0.592433   -1.155449
H      0.005636    0.581929   -2.115392
H     -1.620016   -1.102324   -1.546516
H     -3.628133   -1.715967   -0.256528
H     -4.273962   -0.410005    1.747892
H     -2.899100    1.523002    2.464265
H     -0.887915    2.157281    1.193372
H      0.946397    2.537351   -1.832078
H      0.948757   -1.495848   -1.501022
H      0.666148   -1.566056    0.170633
H      3.370887   -1.480396   -1.110744
H      2.991949   -1.772064    0.642960
H      2.505884   -2.970774   -0.596375
