13

C      2.306340    0.382244    0.501567
O      1.010227    0.377003   -0.084409
C      0.024777   -0.545961    0.277126
O      0.247725   -1.410715    1.167993
C     -1.322230   -0.473475   -0.365543
N     -2.207826    0.366621    0.432429
H      2.815557   -0.585402    0.306934
H      2.905903    1.200728    0.053105
H      2.227932    0.551777    1.596389
H     -1.225701   -0.058849   -1.393478
H     -1.750350   -1.496864   -0.442017
H     -1.876475    1.356218    0.356076
H     -3.155879    0.336675   -0.007859
