31

C     -5.312222    0.334636    0.045768
C     -3.967477   -0.161089    0.467096
O     -3.881237   -1.180501    1.204222
N     -2.783856    0.513013    0.017715
C     -1.439129    0.055772    0.382375
C     -0.404061    1.159111    0.094291
C      0.954280    0.798756    0.626615
C      1.382026    0.921427    1.945318
N      2.635618    0.432840    2.082775
C      2.998708   -0.007033    0.865441
C      4.203462   -0.613013    0.511536
C      4.368297   -1.017336   -0.825799
C      3.336170   -0.811866   -1.767954
C      2.130160   -0.199036   -1.382180
C      1.996999    0.194664   -0.049907
C     -1.107380   -1.201302   -0.373613
O     -1.303683   -1.269523   -1.616086
O     -0.545731   -2.283271    0.292397
H     -5.427631    0.204076   -1.050298
H     -5.408401    1.411323    0.297885
H     -6.117215   -0.228546    0.564163
H     -2.895409    1.350215   -0.599211
H     -1.421640   -0.158090    1.474792
H     -0.345740    1.359761   -0.997469
H     -0.731772    2.101364    0.584969
H      0.801693    1.333476    2.760600
H      3.198132    0.393557    2.961688
H      4.986565   -0.770891    1.241773
H      5.291174   -1.491157   -1.133931
H      3.473306   -1.129165   -2.793458
H      1.335995   -0.042171   -2.099875
