27

C      2.680110    1.287195   -1.047556
C      3.558852    0.181420   -1.030349
C      3.191252   -1.011109   -0.380823
C      1.943637   -1.057328    0.239838
C      1.091433    0.017619    0.226140
C      1.426374    1.211684   -0.414009
C     -0.044755   -0.365516    0.913350
C      0.178012   -1.682360    1.304773
N      1.398279   -2.097051    0.894712
C     -1.302064    0.426815    1.129822
C     -2.388918    0.069052    0.096026
C     -3.683085    0.739462    0.471847
O     -4.665249    0.050510    0.854479
O     -3.797071    2.123594    0.416738
N     -1.991980    0.464885   -1.261982
H      2.972379    2.198358   -1.553038
H      4.520197    0.250808   -1.522446
H      3.855563   -1.865464   -0.366928
H      0.748342    2.054604   -0.428782
H     -0.519521   -2.304543    1.850297
H      1.821837   -3.039320    1.046964
H     -1.076550    1.514390    1.092478
H     -1.678298    0.203990    2.152505
H     -2.546753   -1.034192    0.114703
H     -2.775680    0.277754   -1.929449
H     -1.748973    1.481997   -1.296243
H     -1.167367   -0.097254   -1.573067
