26

C      2.790698   -1.414767    0.318210
C      3.543643   -0.301270   -0.048229
C      2.907334    0.879757   -0.435002
C      1.502194    0.968756   -0.458195
C      0.739523   -0.174829   -0.093199
C      1.397746   -1.354792    0.292294
C     -0.738496   -0.199796   -0.163902
C     -1.333755   -0.277620   -1.434308
C     -2.718939   -0.372252   -1.564906
C     -3.526203   -0.399888   -0.429701
C     -2.952570   -0.325136    0.840945
C     -1.556588   -0.216678    0.998027
C     -0.998972   -0.100232    2.371287
O     -1.685620   -0.455722    3.366084
O      0.266799    0.429503    2.591376
C      0.881361    2.264243   -0.841005
O     -0.318640    2.521170   -0.559088
O      1.634581    3.232699   -1.495106
H      3.287332   -2.329007    0.616597
H      4.624751   -0.351415   -0.029797
H      3.520448    1.731367   -0.702313
H      0.827221   -2.234667    0.564993
H     -0.719252   -0.274565   -2.326729
H     -3.166756   -0.431718   -2.548491
H     -4.600895   -0.476426   -0.533713
H     -3.606943   -0.336713    1.703870
