34

C     -5.467654    0.907804    0.746289
C     -4.442929    1.847599    0.887541
C     -3.148003    1.542641    0.456881
C     -2.871376    0.294262   -0.125485
C     -3.905122   -0.648608   -0.255919
C     -5.198593   -0.339610    0.176347
C     -1.467951   -0.044690   -0.560778
C     -0.598071   -0.499246    0.624469
C     -1.094816   -1.798788    1.197662
O     -1.500417   -1.850810    2.388664
O     -1.117487   -2.948030    0.416102
N      0.790521   -0.657117    0.184268
C      1.737075    0.424212    0.230936
O      1.349488    1.579368    0.559167
C      3.161721    0.208800   -0.119923
C      3.958135    1.294154   -0.531661
C      5.303696    1.102105   -0.859903
C      5.871087   -0.170854   -0.774050
C      5.095071   -1.253713   -0.355444
C      3.748482   -1.067947   -0.026759
H     -6.469160    1.144896    1.081274
H     -4.651363    2.811549    1.333421
H     -2.360702    2.276417    0.578582
H     -3.709069   -1.621781   -0.688654
H     -5.991919   -1.068443    0.071972
H     -1.010053    0.855913   -1.025719
H     -1.484058   -0.832607   -1.346235
H     -0.643993    0.275347    1.423452
H      1.040715   -1.518254   -0.352357
H      3.538025    2.289286   -0.609905
H      5.906787    1.941501   -1.181263
H      6.913186   -0.317309   -1.027168
H      5.538937   -2.237993   -0.279283
H      3.179809   -1.920056    0.320841
