18

C      0.418561   -0.172961    1.148003
C     -0.977045   -0.202802    1.223763
C     -1.757111   -0.155901    0.053626
C     -1.109869   -0.073864   -1.191755
C      0.285889   -0.044039   -1.265857
C      1.059136   -0.107156   -0.097718
C      2.559312   -0.038540   -0.177548
O      2.977551    1.297603   -0.231626
N     -3.194319   -0.186169    0.126765
O     -3.774664   -0.257447    1.230029
O     -3.954035   -0.138401   -1.019737
H      0.999604   -0.200976    2.061626
H     -1.445801   -0.259208    2.197815
H     -1.682002   -0.029348   -2.109341
H      0.764036    0.028204   -2.235045
H      2.911421   -0.560214   -1.092954
H      3.026595   -0.557586    0.690476
H      2.892740    1.658805    0.689477
