21

C     -2.467376    1.087048    0.249481
C     -3.023655   -0.012071   -0.407530
C     -2.227145   -1.115556   -0.722397
C     -0.867369   -1.128175   -0.377485
C     -0.305507   -0.026634    0.300214
C     -1.114198    1.083863    0.598010
C      1.160087    0.000320    0.655138
C      1.987663    0.537880   -0.514966
C      3.440135    0.569235   -0.159078
O      4.167916   -0.434683   -0.378030
O      3.980258    1.689255    0.460128
O     -0.075536   -2.227972   -0.707679
H     -3.084558    1.944093    0.486299
H     -4.071816   -0.006971   -0.677437
H     -2.666340   -1.959827   -1.238444
H     -0.695930    1.948010    1.099379
H      1.319984    0.641846    1.550215
H      1.504825   -1.022330    0.923928
H      1.841185   -0.105184   -1.410458
H      1.654458    1.567538   -0.769647
H     -0.457081   -3.029682   -1.196001
