25

C      3.311601   -0.822560    0.124226
O      2.602321   -0.287467    1.236993
C      1.294079    0.219079    1.178698
C      0.703400    0.711666    2.357207
C     -0.600952    1.214861    2.329582
C     -1.325846    1.235059    1.137099
C     -0.749277    0.758689   -0.048539
C      0.557389    0.245403   -0.022577
C     -1.546918    0.751386   -1.328615
C     -2.467970   -0.471591   -1.417806
C     -1.687503   -1.744105   -1.544269
O     -1.228830   -2.097260   -2.662414
O     -1.429685   -2.517268   -0.419285
O      1.397093    0.706740    3.567272
H      3.432456   -0.046423   -0.660757
H      2.771283   -1.701807   -0.286040
H      4.317637   -1.148612    0.458715
H     -1.055569    1.588783    3.238259
H     -2.338021    1.620483    1.137447
H      0.988984   -0.135155   -0.938645
H     -2.169357    1.671466   -1.376633
H     -0.870099    0.779407   -2.211147
H     -3.126766   -0.363338   -2.306390
H     -3.122754   -0.521408   -0.520765
H      2.343306    0.353974    3.645846
