21

C     -2.148775   -1.432268    0.445354
C     -0.771109   -1.436138    0.208811
C     -0.148897   -0.315597   -0.365564
C     -0.920232    0.816565   -0.677388
C     -2.302236    0.818845   -0.438771
C     -2.913043   -0.308413    0.120292
O     -3.074872    1.935074   -0.751242
C      1.339761   -0.305387   -0.589263
C      2.065287    0.233805    0.645776
C      3.544508    0.239375    0.423910
O      4.105254    1.245861   -0.084034
O      4.298041   -0.886099    0.732290
H     -2.623999   -2.300099    0.884145
H     -0.189446   -2.310394    0.473969
H     -0.448363    1.694056   -1.102557
H     -3.979436   -0.311301    0.306889
H     -2.663066    2.767598   -1.156456
H      1.582687    0.325915   -1.472718
H      1.693619   -1.336503   -0.812166
H      1.720835    1.268374    0.865328
H      1.833482   -0.403268    1.526980
