18

C      1.975678   -1.056570   -0.206646
C      2.389672    0.238067   -0.525512
C      1.500417    1.307905   -0.399376
C      0.189916    1.089440    0.051237
C     -0.227616   -0.214664    0.388367
C      0.672680   -1.284631    0.243692
C     -1.637458   -0.482698    0.846563
C     -2.530699   -0.696309   -0.333223
O     -3.157938    0.272132   -0.837354
O     -2.634551   -1.957175   -0.906880
O     -0.695728    2.161254    0.162488
H      2.664224   -1.885111   -0.311303
H      3.399141    0.412175   -0.875054
H      1.829163    2.307046   -0.655581
H      0.364746   -2.296018    0.478991
H     -2.015379    0.363785    1.459979
H     -1.667902   -1.384975    1.495147
H     -0.418367    3.106350   -0.075536
