18

C     -0.808448    1.243214    0.570350
C     -0.579763   -0.103358   -0.138556
C     -1.679898   -1.088597    0.302211
C      0.812278   -0.682997    0.229234
C      1.942597    0.173476   -0.260345
O      2.336796    0.078772   -1.453512
O      2.538919    1.092300    0.597680
O     -0.672934    0.109550   -1.527788
H     -1.826230    1.629604    0.346938
H     -0.705915    1.132100    1.671475
H     -0.076642    2.001089    0.219182
H     -1.654782   -1.238692    1.403301
H     -2.682229   -0.701191    0.019069
H     -1.540543   -2.075478   -0.189109
H      0.896321   -0.795980    1.332449
H      0.925701   -1.698432   -0.210389
H      3.295193    1.685905    0.278666
H     -0.520420   -0.761285   -1.980919
