17

C     -1.479679    0.385524    0.013337
C     -0.003520    0.229513   -0.403876
C      0.832474   -0.440265    0.708012
C      2.236417   -0.707820    0.255834
O      3.166678    0.078512    0.574883
O      2.509241   -1.805191   -0.550999
C      0.562490    1.582536   -0.748723
O      0.985986    1.813256   -1.912008
O      0.621909    2.584792    0.212807
C     -2.174010   -0.939075    0.114070
O     -2.420011   -1.442914    1.241539
O     -2.526326   -1.628668   -1.039220
H     -2.018791    0.993905   -0.745702
H     -1.550159    0.923915    0.984626
H      0.035349   -0.412619   -1.313923
H      0.377083   -1.413195    0.990016
H      0.844871    0.197793    1.619325
