17

C      3.016218    0.374398   -0.339413
C      2.237153    0.665612   -1.463623
C      0.857009    0.438724   -1.437676
C      0.253326   -0.081026   -0.284202
C      1.036220   -0.372175    0.841580
C      2.416109   -0.144133    0.812365
C     -1.166525   -0.314931   -0.255779
C     -2.355863   -0.510614   -0.231875
C     -3.773959   -0.742638   -0.202881
O     -4.233063   -1.849881   -0.584740
O     -4.641978    0.247957    0.244206
H      4.083938    0.550394   -0.360749
H      2.702544    1.066938   -2.354596
H      0.262207    0.667658   -2.313817
H      0.580847   -0.774130    1.738736
H      3.019932   -0.369191    1.681980
H     -4.294113    1.147038    0.556328
