45

C      3.729822   -0.637192   -1.345655
C      4.823118   -0.362813   -0.315484
C      4.329480   -0.480032    1.136503
C      3.310156    0.608100    1.536412
C      1.860429    0.094167    1.490517
C      0.843753    1.111387    2.041932
C      0.727327    2.419159    1.236326
C      0.272324    2.249064   -0.225560
C     -1.174886    1.732643   -0.372179
C     -1.233500    0.238348   -0.722837
C     -2.682457   -0.227505   -0.907127
C     -2.739709   -1.722901   -1.252772
C     -4.172669   -2.205551   -1.513215
C     -4.998044   -2.203112   -0.259462
O     -4.889964   -3.152323    0.561900
N     -5.880134   -1.117559    0.026185
H      2.999935    0.197633   -1.366826
H      4.185679   -0.717717   -2.354854
H      3.206228   -1.589694   -1.116850
H      5.253558    0.646972   -0.491288
H      5.638131   -1.103495   -0.466822
H      3.925914   -1.500448    1.317554
H      5.220058   -0.375769    1.794262
H      3.532183    0.931765    2.577098
H      3.427540    1.497448    0.882182
H      1.587020   -0.206261    0.461366
H      1.787599   -0.819587    2.119986
H      1.129896    1.369232    3.084894
H     -0.154393    0.630040    2.106560
H      1.701081    2.951712    1.250028
H      0.007453    3.087239    1.757635
H      0.321773    3.255919   -0.695301
H      0.990762    1.621364   -0.792500
H     -1.666846    2.299582   -1.193404
H     -1.759179    1.928956    0.553542
H     -0.668820    0.059885   -1.664497
H     -0.765571   -0.359804    0.085007
H     -3.244635   -0.041673    0.033759
H     -3.156784    0.358273   -1.725145
H     -2.287568   -2.319921   -0.430005
H     -2.140624   -1.904542   -2.171930
H     -4.653088   -1.572894   -2.290738
H     -4.134082   -3.242456   -1.911743
H     -5.965367   -0.311712   -0.632205
H     -6.442898   -1.113927    0.905575
