24

C     -2.719944   -1.214141   -0.524125
C     -3.373421   -0.091671   -0.012160
C     -2.660671    1.086642    0.221758
C     -1.287561    1.150402   -0.058340
C     -0.626122    0.022471   -0.586151
C     -1.352640   -1.160602   -0.806995
C      0.856840    0.055672   -0.869582
C      1.678530   -0.213337    0.403335
C      3.151298   -0.040493    0.119912
O      3.757690   -0.870667   -0.608356
O      3.849108    1.050370    0.631498
N      1.400446   -1.555157    0.923914
O     -0.580767    2.327631    0.187011
H     -3.272838   -2.127943   -0.699586
H     -4.432448   -0.135748    0.206998
H     -3.175509    1.949931    0.623820
H     -0.859343   -2.042664   -1.196402
H      1.113490   -0.694328   -1.650624
H      1.129088    1.050602   -1.285959
H      1.377833    0.527192    1.177134
H      3.391858    1.747981    1.206087
H      1.712749   -2.274268    0.230808
H      1.956670   -1.697858    1.798519
H     -1.034336    3.149983    0.567485
