16

C      1.956417   -0.286909    0.149251
C      0.776658    0.659580   -0.075502
C     -0.570560    0.051723    0.368257
C     -1.001638   -1.118091   -0.526552
C     -1.635186    1.113928    0.355620
O     -2.232573    1.424031    1.419975
O     -1.967609    1.760470   -0.829375
H      1.984005   -0.631214    1.204892
H      1.891131   -1.164926   -0.525963
H      2.904633    0.246943   -0.072037
H      0.968736    1.584846    0.511883
H      0.736541    0.944415   -1.149971
H     -0.465806   -0.328872    1.409355
H     -2.012197   -1.473391   -0.230433
H     -1.030014   -0.810004   -1.593936
H     -0.302539   -1.972531   -0.415462
