22

C     -2.796590   -0.087148    1.664595
O     -2.423211   -0.668634    0.419568
C     -1.192694   -0.455264   -0.222204
C     -0.948696   -1.094059   -1.452248
C      0.270467   -0.904549   -2.110367
C      1.251914   -0.080428   -1.557475
C      1.020508    0.574666   -0.339678
C     -0.197496    0.376293    0.330114
C      2.090394    1.437129    0.271542
C      2.965970    0.615793    1.162402
O      2.678505    0.477220    2.380469
O      4.073322   -0.038385    0.637569
O     -1.906051   -1.924067   -2.035414
H     -2.095275   -0.410326    2.462680
H     -2.800465    1.020348    1.583056
H     -3.818272   -0.426900    1.931148
H      0.458534   -1.401435   -3.053737
H      2.192991    0.046615   -2.078348
H     -0.359867    0.870835    1.278555
H      1.631705    2.265109    0.855225
H      2.709840    1.904884   -0.524153
H     -2.805531   -2.097697   -1.603298
