38

C     -0.988105    1.635723    2.601610
C     -1.373338    1.302621    1.182004
C     -1.994765    2.253104    0.464442
C     -2.341103    2.058261   -0.947267
O     -2.934988    2.974289   -1.575399
C     -1.940586    0.805526   -1.661196
C     -1.845046   -0.403236   -0.691534
C     -0.935431   -0.028174    0.559556
C      0.521404    0.162274    0.150767
C      1.463408   -0.787889    0.257621
C      2.861602   -0.585175   -0.198886
C      3.551427   -1.667922   -0.613513
C      4.917530   -1.663017   -1.178419
O      5.534375   -2.753967   -1.294775
O      5.521057   -0.498268   -1.636554
C      3.473255    0.795591   -0.167434
O     -1.045176   -1.006055    1.575820
C     -1.277641   -1.599777   -1.501416
C     -3.272485   -0.791469   -0.223083
H     -0.413460    2.586322    2.625528
H     -0.349414    0.847873    3.051751
H     -1.903272    1.748350    3.220251
H     -2.257348    3.196625    0.929871
H     -2.672252    0.593685   -2.472495
H     -0.957202    0.989547   -2.145772
H      0.778238    1.101598   -0.325114
H      1.198366   -1.766775    0.633549
H      3.074856   -2.640451   -0.549539
H      3.498484    1.221761   -1.192158
H      4.497794    0.758742    0.258089
H      2.896723    1.477547    0.491348
H     -0.945666   -1.908208    1.183594
H     -1.931608   -1.819282   -2.373305
H     -1.222155   -2.527137   -0.896678
H     -0.265996   -1.377417   -1.900533
H     -3.733874    0.013138    0.386585
H     -3.934860   -0.981816   -1.095139
H     -3.252748   -1.716543    0.391087
