20

C      1.606159    1.023114   -0.812713
N      0.776225    0.130835    0.014447
C      0.649440   -1.206032   -0.581881
C     -0.684013   -1.781119   -0.114211
C     -1.468111   -0.604293    0.449030
C     -0.605125    0.621423    0.156822
C     -0.730498    1.673256    1.230598
O     -0.376256    1.428751    2.414730
O     -1.244333    2.924727    0.915435
H      1.170103    1.159865   -1.827294
H      2.629527    0.601598   -0.919883
H      1.696710    2.019536   -0.328263
H      1.227224    0.027859    0.956015
H      1.492906   -1.860977   -0.267226
H      0.643706   -1.154088   -1.695640
H     -0.517755   -2.546053    0.675978
H     -1.228331   -2.249982   -0.963186
H     -2.464197   -0.514871   -0.037585
H     -1.613893   -0.750104    1.542746
H     -0.959485    1.056555   -0.807921
