45

C     -2.944073   -1.877168   -0.478008
C     -3.304966   -2.513644    0.871965
N     -2.137389   -3.142727    1.522727
C     -0.857689   -2.413969    1.357200
C     -1.056989   -0.926568    0.999663
C     -1.819334   -0.814215   -0.349910
C     -2.341617    0.596315   -0.573705
C     -1.782149    1.401117   -1.583798
C     -2.239926    2.706606   -1.785012
C     -3.256997    3.224831   -0.979902
C     -3.816280    2.438428    0.030050
C     -3.361430    1.132653    0.235892
F     -3.698723    4.491486   -1.176396
C      0.287713   -0.176209    0.969315
O      1.146096   -0.719045   -0.032607
C      2.423950   -0.227102   -0.331338
C      2.994836    0.867696    0.364651
C      4.269933    1.284057   -0.007719
C      4.964190    0.676391   -1.002148
C      4.443981   -0.401153   -1.711157
C      3.157477   -0.853623   -1.366302
O      6.190146    1.295005   -1.153148
C      6.270893    2.357968   -0.193215
O      5.024948    2.315459    0.516555
H     -2.604628   -2.690280   -1.157657
H     -3.860475   -1.444578   -0.936438
H     -3.741630   -1.742554    1.543193
H     -4.096281   -3.278759    0.709190
H     -2.346344   -3.235619    2.544552
H     -2.022535   -4.111495    1.141958
H     -0.264821   -2.492162    2.296475
H     -0.255038   -2.901067    0.556678
H     -1.665212   -0.468594    1.811480
H     -1.096540   -1.050043   -1.163766
H     -0.987460    1.021657   -2.214033
H     -1.803055    3.316924   -2.564954
H     -4.601855    2.840731    0.656693
H     -3.804636    0.544834    1.027277
H      0.104368    0.900238    0.761402
H      0.778664   -0.258699    1.963571
H      2.474534    1.377890    1.163336
H      5.010723   -0.874922   -2.501768
H      2.726124   -1.690091   -1.901223
H      6.383834    3.333658   -0.710691
H      7.115660    2.180339    0.504870
