17

C     -1.282332   -0.837412    0.511057
C      0.217545   -0.974388    0.693490
C      0.768688    0.378800    0.271420
N     -0.155799    0.908441   -0.733969
C     -1.479670    0.389717   -0.377473
C      2.177390    0.282854   -0.253527
O      3.106558    0.913693    0.315747
O      2.463861   -0.499234   -1.366606
H     -1.775709   -0.680529    1.495585
H     -1.705724   -1.748342    0.033923
H      0.593847   -1.785033    0.030158
H      0.481307   -1.209193    1.747929
H      0.758713    1.051336    1.162014
H     -0.153455    1.955572   -0.720986
H      0.095310    0.569453   -1.693311
H     -2.056849    1.164222    0.176987
H     -2.053678    0.120044   -1.292437
