18

C     -0.085962   -0.277643    1.139363
C     -1.412044   -0.382354    0.393713
C     -1.072477   -0.162532   -1.087253
N      0.382082   -0.013430   -1.196330
C      0.851171    0.379469    0.135825
C      2.292745    0.005456    0.362809
O      2.664895   -1.195923    0.287136
O      3.224211    0.991993    0.660765
O     -2.342629    0.566758    0.856182
H      0.266263   -1.300770    1.400268
H     -0.168568    0.323286    2.071794
H     -1.843260   -1.397486    0.537650
H     -1.578051    0.749438   -1.478970
H     -1.421172   -1.027122   -1.695926
H      0.626455    0.719608   -1.903156
H      0.796817   -0.931093   -1.486369
H      0.752431    1.485387    0.241680
H     -1.932908    1.466957    0.760818
