18

C      0.216696   -1.042754    0.254832
C     -0.434497   -0.827514   -1.100883
C     -0.707006    0.677331   -1.179530
N     -0.100015    1.315321   -0.004289
C      0.798236    0.320395    0.590659
C      0.970868    0.523442    2.073622
O     -0.020675    0.472455    2.849398
O      2.234457    0.770834    2.594961
O     -1.629498   -1.555541   -1.211023
H     -0.553476   -1.338315    1.002697
H      1.006982   -1.823580    0.208347
H      0.273679   -1.117205   -1.912817
H     -1.801153    0.885061   -1.207995
H     -0.262043    1.089287   -2.113627
H      0.436557    2.169871   -0.284641
H     -0.858751    1.587979    0.665153
H      1.799009    0.399285    0.104346
H     -1.369370   -2.506352   -1.329211
