11

C      1.557122    0.545001    0.762386
C      0.282012   -0.214559    0.584612
C     -0.563207    0.086364   -0.405638
C     -1.827007   -0.638615   -0.612034
O     -2.166647   -1.584936    0.147523
O     -2.659680   -0.273847   -1.661684
H      2.189500    0.442235   -0.144752
H      2.114181    0.143961    1.634879
H      1.337277    1.618964    0.940246
H      0.056893   -1.016581    1.277620
H     -0.320444    0.892014   -1.088729
