12

C      0.442971   -0.204096    0.563412
C     -0.473339    0.211794   -0.587441
N     -1.868295    0.011237   -0.215564
O     -2.479394    0.897565    0.415809
O     -2.443797   -1.228564   -0.367483
C      1.877751   -0.002296    0.191723
O      2.521846   -0.925147   -0.373044
O      2.490726    1.222317    0.424571
H      0.210878    0.403746    1.464525
H      0.270544   -1.273922    0.812724
H     -0.305463    1.282692   -0.838586
H     -0.244429   -0.395328   -1.490646
