20

C      1.317018   -1.839441    0.211348
C      1.088793   -0.544250   -0.195464
N      2.025793    0.248331    0.346920
C      2.811268   -0.578758    1.061668
N      2.407508   -1.866501    1.003369
C     -0.054431   -0.062230   -1.038200
C     -1.345013    0.098906   -0.210223
C     -2.499029    0.403174   -1.127454
O     -3.420314   -0.440314   -1.287092
O     -2.546609    1.608546   -1.817875
N     -1.207966    1.159499    0.797254
H      0.724275   -2.708050   -0.043276
H      2.121335    1.283423    0.248150
H      3.670666   -0.247291    1.629287
H      0.219490    0.904424   -1.514733
H     -0.224152   -0.801024   -1.852199
H     -1.555082   -0.863876    0.310714
H     -2.117533    1.294311    1.296535
H     -0.490378    0.888837    1.507749
H     -0.925641    2.062286    0.349888
