19

C      1.454038    1.086256   -0.457068
C      0.439475   -0.065652   -0.343679
C      1.199161   -1.385312   -0.128331
C     -0.594102    0.202462    0.792647
C     -1.364549    1.471625    0.524694
O     -1.261458    2.452729    1.307395
O     -2.190622    1.567058   -0.588893
N     -1.538456   -0.914349    0.947803
H      2.189847    0.875902   -1.262522
H      0.943692    2.037247   -0.716727
H      2.001157    1.220719    0.500762
H     -0.100004   -0.141471   -1.314285
H      1.665023   -1.409397    0.880187
H      1.997152   -1.503680   -0.892360
H      0.516257   -2.253138   -0.238191
H     -0.038553    0.325197    1.751302
H     -1.952973   -1.179944    0.024528
H     -1.055300   -1.741180    1.366355
H     -2.309787   -0.645074    1.601913
