14

C     -1.019140   -1.222465   -0.022075
C     -0.734464    0.276522   -0.139709
C      0.700714    0.553152   -0.628454
C      1.738875    0.118286    0.362644
O      2.301520   -1.001688    0.241670
O      2.061947    0.937647    1.436917
O     -0.963757    0.891579    1.101734
H     -0.826800   -1.729524   -0.991595
H     -2.084248   -1.379854    0.250703
H     -0.384400   -1.684087    0.763652
H     -1.443511    0.689795   -0.894474
H      0.871720    0.040683   -1.600532
H      0.818164    1.643282   -0.809417
H     -1.036620    1.866671    0.928935
