20

C     -2.263815   -0.355304   -0.127575
C     -0.794240   -0.804160   -0.207894
C      0.199375    0.369097    0.010965
C      1.656298   -0.064186   -0.254894
C      2.562099    1.135650   -0.264653
O      2.857345    1.695590   -1.353193
O      3.038925    1.663403    0.929355
O      2.081219   -0.968517    0.732343
O      0.089122    0.872830    1.320429
O     -0.556354   -1.853836    0.697925
O     -2.542466    0.572645   -1.139738
H     -2.476857    0.093113    0.868380
H     -2.919116   -1.245892   -0.255772
H     -0.633706   -1.206118   -1.232610
H     -0.044342    1.169369   -0.729736
H      1.704771   -0.553632   -1.256522
H      2.894206   -1.417171    0.380044
H     -0.593761    1.593017    1.301537
H     -0.762631   -1.519683    1.609775
H     -3.496072    0.823785   -1.028169
