17

C      1.741757    0.913303   -0.042014
C      0.762809   -0.176420   -0.504742
C     -0.587767   -0.117408    0.260930
C     -1.284609    1.200207    0.033029
O     -1.695109    1.515868   -1.115398
O     -1.468120    2.080549    1.091942
N     -1.468302   -1.223206   -0.139898
O      1.362393   -1.440730   -0.365461
H      2.710773    0.796199   -0.571977
H      1.922138    0.837637    1.051559
H      1.342038    1.922870   -0.274044
H      0.566502   -0.017428   -1.587902
H     -0.379831   -0.214259    1.350998
H     -1.625714   -1.213822   -1.174359
H     -1.042963   -2.138279    0.134113
H     -2.390095   -1.139403    0.348212
H      1.534099   -1.585680    0.602146
