28

C     -3.592813    0.292679    0.290456
C     -3.043986   -0.868219    0.865134
C     -1.717326   -1.176867    0.570499
C     -0.959188   -0.383605   -0.251282
C     -1.472179    0.775853   -0.832670
C     -2.810222    1.115521   -0.556570
O     -3.354014    2.265997   -1.122613
C      0.292307   -0.963046   -0.322569
C      0.231025   -2.093271    0.487192
N     -1.003352   -2.221456    1.025234
C      1.503602   -0.440015   -1.040790
C      2.190579    0.690810   -0.249020
C      2.729779    0.177932    1.061633
O      2.241443    0.584497    2.148758
O      3.756293   -0.758858    1.079500
N      3.272933    1.286344   -1.040683
H     -4.621100    0.555568    0.502892
H     -3.633824   -1.499124    1.517436
H     -0.862166    1.397120   -1.475851
H     -4.313151    2.540231   -0.944852
H      1.048353   -2.775641    0.681141
H     -1.327610   -2.973304    1.673327
H      1.186284   -0.058049   -2.034998
H      2.219211   -1.272232   -1.219904
H      1.435756    1.483906   -0.040695
H      3.985843    0.564000   -1.295781
H      2.881996    1.704727   -1.916115
H      3.735528    2.048503   -0.493040
