16

C     -1.037017   -0.900639    0.784042
C     -0.445606    0.412745    0.254643
C      0.733605    0.174160   -0.714600
N      1.890326   -0.420245   -0.040776
C     -1.517424    1.216732   -0.428947
O     -2.104272    0.765306   -1.448635
O     -1.866322    2.468130    0.063425
H     -1.936006   -0.692737    1.403510
H     -1.327798   -1.569366   -0.054550
H     -0.302877   -1.426555    1.428922
H     -0.077906    1.000948    1.124444
H      1.041778    1.149580   -1.154829
H      0.413649   -0.484864   -1.552888
H      1.686324   -1.408813    0.229513
H      2.146896    0.137471    0.805885
H      2.702650   -0.421854   -0.699159
