14

C      0.831127   -0.640904   -0.618542
C      2.165427   -0.313527   -0.099089
N      3.216722   -0.055739    0.310195
C     -0.222605    0.380686   -0.147978
C     -1.522035    0.144148   -0.870473
O     -2.177959   -0.913811   -0.676224
O     -1.998201    1.089611   -1.770140
N     -0.429137    0.309206    1.305390
H      0.555344   -1.664487   -0.285418
H      0.886615   -0.639039   -1.728587
H      0.132796    1.404035   -0.409132
H     -1.179905    0.980173    1.589899
H     -0.706715   -0.657652    1.593617
H      0.448525    0.577301    1.806483
