19

C     -2.842374    0.802618    0.236119
N     -1.484742    0.244719    0.130118
C     -0.389926    1.081528    0.185507
O     -0.517750    2.326105    0.348287
C      0.871144    0.521064    0.052025
C      1.009745   -0.809108   -0.144779
N      2.307594   -1.131825   -0.259382
C      2.931093    0.064528   -0.121228
O      4.182308    0.197989   -0.169699
N      2.081506    1.104622    0.071175
N     -0.052447   -1.641259   -0.227368
C     -1.309230   -1.111946   -0.097869
O     -2.307262   -1.878245   -0.193326
H     -3.536361    0.077775    0.712778
H     -2.855621    1.714941    0.869899
H     -3.219741    1.057450   -0.776494
H      2.731873   -2.072280   -0.420964
H      2.313486    2.114873    0.199422
H      0.086706   -2.663550   -0.394219
