19

C      1.528473   -1.802731    0.387996
C      2.501450   -0.786985    0.505176
C      2.147899    0.561281    0.322625
C      0.814303    0.854211    0.040313
C     -0.140689   -0.129599   -0.049518
C      0.190373   -1.479653    0.098320
C     -1.332824    0.503895   -0.363543
C     -1.022647    1.857197   -0.467421
N      0.287820    2.064770   -0.210440
C     -2.666524   -0.088202   -0.569567
O     -3.477194    0.469919   -1.354686
O     -3.070834   -1.228310    0.119755
H      1.816201   -2.838776    0.510826
H      3.528677   -1.048496    0.723371
H      2.890871    1.345427    0.390475
H     -0.541238   -2.264360   -0.029646
H     -1.720999    2.648230   -0.708779
H      0.788638    2.981083   -0.219712
H     -2.521755   -1.618902    0.874456
