28

C     -0.500138    1.143492   -0.276734
C      0.987792    0.923066    0.037255
C      1.599442   -0.226350   -0.775128
N      3.044685   -0.285445   -0.565164
C      3.630221   -0.793692    0.640997
O      2.900042   -1.230234    1.571126
N      5.048773   -0.813898    0.791679
C     -1.391880    0.009616    0.260784
C     -2.894718    0.324035    0.099061
C     -3.276316    0.404511   -1.356657
O     -3.706358    1.485242   -1.839012
O     -3.152021   -0.710452   -2.177115
N     -3.707051   -0.694882    0.774047
H     -0.811455    2.100406    0.196455
H     -0.636505    1.251430   -1.374761
H      1.535851    1.858885   -0.208735
H      1.117910    0.735589    1.124859
H      1.145623   -1.198968   -0.489971
H      1.399663   -0.057953   -1.855920
H      3.674038    0.004192   -1.347354
H      5.481335   -1.185384    1.666430
H      5.668687   -0.456681    0.031452
H     -1.171997   -0.134439    1.341450
H     -1.156665   -0.941185   -0.263887
H     -3.101783    1.307599    0.580389
H     -3.512111   -1.644474    0.379814
H     -4.723142   -0.475025    0.655444
H     -3.491924   -0.699000    1.797728
