28

C     -3.569107    0.503042    0.704088
N     -2.432634    0.723562   -0.193793
C     -2.012136   -0.538235   -0.824550
C     -0.769644   -0.336486   -1.719994
C      0.538048   -0.837687   -1.083783
C      0.956800   -0.016532    0.147693
C      2.338429   -0.442049    0.690968
C      3.437092   -0.100664   -0.282708
O      3.679069    1.099688   -0.578762
O      4.187378   -1.114386   -0.865211
N      2.598893    0.194457    1.987843
H     -3.288270   -0.189207    1.528056
H     -3.882994    1.469261    1.154798
H     -4.434250    0.082172    0.146002
H     -2.721357    1.405031   -0.934465
H     -1.646340    1.134772    0.359036
H     -2.843059   -0.920692   -1.460146
H     -1.812016   -1.313901   -0.050889
H     -0.921468   -0.911086   -2.660058
H     -0.659856    0.729537   -2.017428
H      0.430873   -1.908412   -0.803030
H      1.333561   -0.773448   -1.857117
H      0.204717   -0.174749    0.949729
H      0.968194    1.066826   -0.104993
H      2.331543   -1.545783    0.840982
H      2.565196    1.236836    1.901464
H      1.882216   -0.113985    2.684588
H      3.541121   -0.091654    2.341681
