22

C      0.829996    0.330113    0.193394
C     -0.413115   -0.474572   -0.216804
C     -1.721042    0.313125    0.011825
C     -1.957406    0.554715    1.480469
O     -1.982756    1.729859    1.932138
O     -2.144534   -0.516222    2.346379
N     -2.861067   -0.407613   -0.566573
C      2.115618   -0.456155   -0.095720
N      3.297211    0.309957    0.299203
H      0.852535    1.288099   -0.370894
H      0.784486    0.561483    1.279672
H     -0.330831   -0.724976   -1.297487
H     -0.444548   -1.431103    0.350686
H     -1.633385    1.296477   -0.505247
H     -2.729746   -0.508644   -1.599418
H     -3.742816    0.131007   -0.401452
H     -2.953182   -1.358278   -0.138901
H      2.174786   -0.687416   -1.182698
H      2.097582   -1.417833    0.464096
H      3.339661    1.206903   -0.237221
H      4.154322   -0.250776    0.088989
H      3.268230    0.511849    1.325102
