12

C      0.874656   -0.325238    0.638799
C     -0.509081   -0.601111    0.035949
N     -1.185756    0.635340   -0.361001
C      1.809407    0.181667   -0.373865
N      2.546137    0.581302   -1.171821
H      1.285595   -1.269850    1.053455
H      0.793923    0.411110    1.466322
H     -1.128078   -1.125624    0.797115
H     -0.413034   -1.277330   -0.843136
H     -1.278315    1.275776    0.460718
H     -2.141458    0.401683   -0.714915
H     -0.653995    1.112275   -1.124539
