29

C     -4.379857   -0.542694    1.190496
C     -3.500263   -0.087574    0.072145
O     -3.964276    0.682181   -0.812188
N     -2.145744   -0.551918   -0.006476
C     -1.252402   -0.172627   -1.106204
C      0.224208   -0.363222   -0.709840
C      0.642931    0.605850    0.409490
C      2.075739    0.353857    0.905007
C      3.141676    0.773383   -0.120048
N      4.484985    0.650599    0.445688
C     -1.568908   -0.998270   -2.319915
O     -1.643663   -2.253066   -2.236221
O     -1.752662   -0.380975   -3.550713
H     -4.631341   -1.614777    1.049922
H     -3.850791   -0.414769    2.158291
H     -5.318642    0.051221    1.215367
H     -1.814935   -1.237099    0.711052
H     -1.407822    0.901333   -1.354517
H      0.391938   -1.413094   -0.381630
H      0.856486   -0.176588   -1.604515
H      0.545963    1.655987    0.056561
H     -0.041427    0.480414    1.276224
H      2.225483    0.943140    1.835984
H      2.202687   -0.720095    1.163675
H      3.071842    0.130121   -1.023596
H      2.969995    1.828622   -0.428509
H      4.664885   -0.339208    0.732415
H      5.187674    0.926162   -0.277998
H      4.586240    1.283108    1.272682
