34

C      3.182608    1.093549   -1.344272
N      2.621928    0.224529   -0.280224
C      2.828587   -1.189017   -0.677739
C      3.356646    0.500662    0.978365
C      1.166753    0.543604   -0.144525
C      0.403961   -0.297262    0.910836
C     -1.061539    0.147108    1.067270
C     -1.959336   -0.354122   -0.078360
C     -3.414247    0.152828    0.041244
C     -4.167767   -0.184661   -1.218111
O     -4.527994    0.730024   -2.005096
O     -4.452219   -1.508797   -1.530458
N     -4.099976   -0.424971    1.205641
H      4.269653    0.903839   -1.493653
H      2.674329    0.913845   -2.318520
H      3.061112    2.170148   -1.087417
H      2.562973   -1.888395    0.143662
H      2.215657   -1.446656   -1.570200
H      3.896424   -1.382619   -0.926216
H      4.456651    0.424019    0.824571
H      3.133736    1.523603    1.355541
H      3.100640   -0.231199    1.773621
H      1.043112    1.619404    0.118983
H      0.667282    0.403238   -1.128217
H      0.884348   -0.174951    1.902551
H      0.424904   -1.375796    0.649879
H     -1.434844   -0.272955    2.025163
H     -1.116643    1.255208    1.141786
H     -1.947959   -1.466351   -0.098962
H     -1.547503    0.005356   -1.044916
H     -3.396281    1.261648    0.150670
H     -4.011473   -1.467501    1.210518
H     -5.114528   -0.169532    1.184505
H     -3.698993   -0.037825    2.089342
