50

C      3.041347    0.563554    3.128210
C      3.691002    0.336086    1.762290
C      3.112010    1.252807    0.668165
C      1.727122    0.798053    0.151479
N      1.807888   -0.300512   -0.851949
C      2.086287    0.221801   -2.211419
C      2.456075   -0.915605   -3.188341
C      1.863475   -2.272343   -2.774374
C      0.501904   -2.091967   -2.104286
C      0.592335   -1.179324   -0.846543
C     -0.707865   -0.409603   -0.682227
O     -1.102086    0.366313   -1.595721
N     -1.467683   -0.533499    0.528311
C     -2.703988    0.167997    0.723259
C     -3.861651   -0.205973    0.001198
C     -5.051259    0.515865    0.182957
C     -5.106932    1.570081    1.094178
C     -3.976129    1.921896    1.830584
C     -2.769936    1.225240    1.657766
C     -1.548403    1.646297    2.429314
C     -3.837068   -1.344388   -0.983340
H      3.121530    1.631112    3.424059
H      3.563870   -0.051600    3.890761
H      1.973470    0.264031    3.118264
H      4.777117    0.551804    1.859966
H      3.590357   -0.732867    1.479968
H      3.835801    1.301368   -0.171100
H      3.026386    2.287196    1.067208
H      1.119662    0.485585    1.026241
H      1.204862    1.679148   -0.286036
H      2.618415   -0.907148   -0.582678
H      2.924188    0.951048   -2.198365
H      1.200470    0.767370   -2.603745
H      2.094856   -0.648139   -4.205394
H      3.562184   -1.014439   -3.242869
H      2.553039   -2.786296   -2.069121
H      1.757124   -2.921080   -3.670635
H     -0.193287   -1.667353   -2.862572
H      0.098605   -3.087376   -1.816048
H      0.685001   -1.865610    0.026753
H     -1.049384   -1.034170    1.344000
H     -5.941456    0.257837   -0.377566
H     -6.031024    2.117056    1.230358
H     -4.041582    2.745289    2.531056
H     -1.135658    0.782043    2.990469
H     -0.778887    2.028812    1.726729
H     -1.782380    2.448727    3.160845
H     -3.460051   -0.982934   -1.962308
H     -3.185152   -2.166166   -0.619157
H     -4.854521   -1.766022   -1.128594
