38

C     -3.213001   -1.432763   -1.779702
C     -3.098804   -0.237026   -0.824794
C     -4.224963   -0.296370    0.218503
C     -1.696645   -0.222334   -0.169281
C     -1.412009    1.015046    0.718237
C     -0.037193    0.908037    1.323507
O      0.074349    0.715980    2.565068
N      1.135159    0.991637    0.495809
C      2.484572    0.687121    0.991677
C      2.923737   -0.749009    0.597189
C      2.070962   -1.805319    1.314044
C      2.896458   -0.993922   -0.921015
C      3.473418    1.714744    0.505716
O      3.313511    2.292383   -0.603741
O      4.600459    1.995741    1.271929
N     -1.521877    2.274797   -0.023633
H     -2.426431   -1.376968   -2.562442
H     -4.200822   -1.427192   -2.288259
H     -3.100178   -2.389529   -1.225454
H     -3.230965    0.682468   -1.434700
H     -5.209060   -0.415885   -0.283127
H     -4.268688    0.645818    0.802168
H     -4.072992   -1.150516    0.912714
H     -1.578212   -1.140335    0.449132
H     -0.928403   -0.272202   -0.972484
H     -2.142498    1.032668    1.556791
H      1.007142    1.159359   -0.527323
H      2.496624    0.755967    2.101742
H      3.973038   -0.891852    0.940926
H      2.099496   -1.644621    2.412818
H      2.468123   -2.821736    1.105936
H      1.015666   -1.762408    0.970585
H      1.861538   -0.928859   -1.318396
H      3.536325   -0.257792   -1.449839
H      3.292397   -2.006982   -1.147100
H      5.288010    2.669747    0.957118
H     -2.532977    2.515823   -0.136311
H     -1.115266    2.166283   -0.981213
