30

C      2.122640    0.016010    2.208564
C      2.083673    0.710629    0.845256
C      3.416594    0.583931    0.167426
O      4.203838    1.565952    0.131579
O      3.803990   -0.627222   -0.393587
N      1.037010    0.127724    0.001328
C      0.541418    0.801100   -1.168368
O      1.038197    1.908766   -1.510899
C     -0.603899    0.233645   -1.980238
C     -1.975881    0.538550   -1.337894
C     -2.141095   -0.038301    0.039586
C     -2.631671   -1.285376    0.355772
N     -2.584804   -1.451633    1.692682
C     -2.063839   -0.294899    2.156155
N     -1.784331    0.582559    1.174743
N     -0.427195   -1.200033   -2.251189
H      1.137382    0.119223    2.711464
H      2.353257   -1.065104    2.092772
H      2.896449    0.483234    2.854790
H      1.852307    1.785122    1.021482
H      0.618106   -0.787357    0.279588
H     -0.598126    0.757486   -2.963971
H     -2.783333    0.147798   -1.994401
H     -2.112869    1.640374   -1.280776
H     -2.992329   -2.030764   -0.340614
H     -1.884598   -0.097969    3.204781
H     -1.366726    1.534077    1.277652
H     -0.510083   -1.773254   -1.382900
H      0.512229   -1.365278   -2.680846
H     -1.156311   -1.518990   -2.929936
