26

C     -1.389329    0.004018    1.661982
C     -1.983305    0.041426    0.245442
C     -2.301442   -1.386485   -0.229889
C     -1.070264    0.833202   -0.732199
C      0.263739    0.156510   -0.975221
O      0.370565   -0.729538   -1.867357
N      1.396736    0.493627   -0.163336
C      2.678863   -0.189604   -0.323575
C      3.669921    0.305729    0.685276
O      4.558686    1.129306    0.343198
O      3.592471   -0.108043    2.011638
N     -1.770362    1.108626   -1.991909
H     -2.112542   -0.458916    2.366922
H     -1.174964    1.033690    2.019304
H     -0.449518   -0.587804    1.682604
H     -2.949543    0.589525    0.315016
H     -1.379584   -2.001942   -0.293021
H     -2.801226   -1.372815   -1.219756
H     -2.996533   -1.876251    0.485161
H     -0.866264    1.820683   -0.260150
H      1.288880    1.232935    0.568626
H      2.537014   -1.282607   -0.183042
H      3.066243   -0.014646   -1.350790
H      2.873625   -0.753635    2.316341
H     -1.193620    1.778019   -2.552420
H     -1.858248    0.234990   -2.558845
