20

C      2.618223   -0.636191    0.375926
C      1.211161   -0.352081   -0.058531
N      0.609657   -1.158664   -0.889914
C     -0.748992   -0.911897   -1.379399
C     -1.602804   -0.231269   -0.308388
C     -0.893961    1.039931    0.177300
N      0.493922    0.741393    0.539872
C     -1.625871    1.628483    1.348621
O     -1.558658    1.083650    2.482580
O     -2.413589    2.759763    1.177110
H      2.607668   -1.387462    1.192683
H      3.214514   -1.028506   -0.474960
H      3.105619    0.291331    0.742509
H      1.122027   -1.984055   -1.276645
H     -0.698610   -0.265921   -2.282835
H     -1.220251   -1.875481   -1.669925
H     -1.749223   -0.938229    0.538596
H     -2.598443    0.024819   -0.732016
H     -0.886356    1.784589   -0.649041
H      1.013967    1.415798    1.146456
