30

C     -1.738747    1.218464   -0.353527
C     -3.254735    1.440780   -0.476582
C     -4.039556    0.397809    0.257831
O     -4.704093   -0.460860   -0.381737
O     -4.022334    0.368979    1.648779
C     -1.233441    0.010339   -1.172014
C      0.271321    0.044045   -1.307348
O      0.783393    0.082796   -2.459379
N      1.116946    0.023352   -0.145553
C      2.580607    0.021523   -0.250185
C      3.230466    0.327783    1.107069
O      2.891513   -0.651896    2.051172
C      3.068385   -1.296963   -0.783162
O      2.559766   -2.376958   -0.377263
O      4.113657   -1.325514   -1.700893
N     -1.668723   -1.252185   -0.569377
H     -1.460397    1.111329    0.717783
H     -1.237408    2.137142   -0.731289
H     -3.553001    1.466130   -1.547578
H     -3.506215    2.431392   -0.040760
H     -4.541121   -0.334977    2.160048
H     -1.673136    0.077053   -2.192906
H      0.671184    0.021575    0.799470
H      2.887717    0.826886   -0.953704
H      4.336854    0.367548    0.987028
H      2.882456    1.324553    1.460119
H      3.340366   -0.386972    2.895634
H      4.464632   -2.204800   -2.061190
H     -1.334651   -2.043084   -1.167352
H     -1.231705   -1.365270    0.374033
