13

C     -0.743373   -0.813559   -0.759550
C     -1.059585    0.210613    0.111112
O      0.033918    0.720449    0.629994
C      1.062969    0.072135    0.135470
C      0.632842   -0.904219   -0.744541
C      2.454481    0.366880    0.487335
O      3.399316   -0.291630   -0.021796
C     -2.412592    0.674326    0.422633
O     -2.587602    1.620033    1.234570
H     -1.429500   -1.420734   -1.335385
H      1.244119   -1.597748   -1.307024
H      2.673695    1.158141    1.191673
H     -3.268688    0.205312   -0.044492
