15

C     -1.613526   -1.005236   -0.208814
C     -1.944418    0.324993    0.053460
C     -0.935699    1.271026    0.247069
C      0.413587    0.892020    0.179492
C      0.753723   -0.450623   -0.085200
C     -0.272994   -1.393868   -0.278362
C      2.171290   -0.862019   -0.158813
O      2.489422   -2.058050   -0.394508
O      1.412358    1.846317    0.374698
H     -2.396915   -1.737004   -0.358583
H     -2.983485    0.623395    0.106803
H     -1.203050    2.300307    0.449944
H     -0.040607   -2.431531   -0.483106
H      2.959881   -0.136115   -0.010161
H      1.190434    2.816387    0.566081
