20

C     -2.358666    0.648914    1.223387
C     -1.692244   -0.017447    0.018783
C     -0.189629    0.008342    0.163010
O      0.362413   -0.669968    1.072436
N      0.606618    0.817758   -0.715053
C      2.064407    0.859148   -0.635152
C      2.648453   -0.411237   -1.173546
O      2.649444   -0.621381   -2.414929
O      3.165561   -1.378069   -0.315908
N     -2.183424   -1.388539   -0.134311
H     -2.016400    1.702080    1.315201
H     -3.461690    0.648458    1.092151
H     -2.110884    0.105824    2.160774
H     -1.984937    0.557206   -0.887361
H      0.133298    1.415690   -1.429449
H      2.382978    1.026800    0.416012
H      2.442735    1.711375   -1.239986
H      3.170796   -1.243186    0.687945
H     -1.740586   -1.808868   -0.984064
H     -1.888243   -1.962898    0.689241
