33

C     -2.682199    2.451135   -1.026924
C     -3.114078    0.999402   -0.768933
C     -2.283733    0.329483    0.354545
C     -2.788594   -1.065956    0.615443
O     -2.350247   -2.035480   -0.059343
O     -3.778462   -1.292130    1.567570
N     -0.847723    0.298329    0.046373
C      0.141716    0.086859    1.064949
O     -0.211366   -0.078944    2.265029
C      1.602099   -0.005552    0.691134
C      2.013920   -1.484743    0.552884
C      3.461005   -1.667569    0.069823
C      3.642022   -1.192088   -1.338936
O      3.249018   -1.904489   -2.301210
O      4.216240    0.051489   -1.583082
N      2.445048    0.678775    1.676576
O     -3.100191    0.240872   -1.955325
H     -3.342586    2.906480   -1.794994
H     -1.633973    2.499818   -1.389383
H     -2.766923    3.046976   -0.093289
H     -4.169708    1.040922   -0.419955
H     -2.431121    0.933686    1.277554
H     -4.170690   -0.531105    2.108889
H     -0.522683    0.375123   -0.942628
H      1.742966    0.497700   -0.290169
H      1.905445   -1.989178    1.538378
H      1.327441   -1.998180   -0.157213
H      4.163706   -1.129837    0.741706
H      3.721062   -2.747110    0.117485
H      4.332569    0.393005   -2.529609
H      2.316267    0.241315    2.618348
H      2.138816    1.676839    1.746153
H     -2.225061    0.374155   -2.401847
