17

C      0.157636   -1.389941   -0.754161
C      0.066820   -0.255957    0.286727
C     -1.404215    0.197676    0.437484
O     -1.931841    0.652094   -0.782252
C      0.923028    0.924322   -0.138706
O      1.325659    1.756651    0.718857
O      1.214108    1.138016   -1.484340
N      0.535207   -0.784171    1.576456
H     -0.441465   -2.265557   -0.423176
H      1.212301   -1.718366   -0.877692
H     -0.223441   -1.061584   -1.744951
H     -1.488514    0.992212    1.215636
H     -2.020275   -0.659224    0.786076
H     -1.678161    1.607880   -0.868191
H      1.763827    1.936872   -1.777117
H      0.435444   -0.054409    2.320117
H      1.553882   -1.016515    1.509235
