31

C     -0.876250    0.024285    0.306896
C      0.033179    0.407404    1.482659
C      1.049615   -0.696003    1.802832
N      1.960784   -0.920165    0.681113
C      3.005817    0.000068    0.337064
O      3.216376    1.021074    1.046237
C      3.892473   -0.275495   -0.842511
N      4.991539   -1.164256   -0.474827
C     -1.918547    1.120767    0.037162
C     -2.805227    0.797128   -1.181907
C     -3.655882   -0.415651   -0.919459
O     -4.594452   -0.364724   -0.079183
O     -3.390498   -1.604917   -1.591156
N     -3.664988    1.940895   -1.490801
H     -0.258830   -0.124132   -0.605919
H     -1.392434   -0.931451    0.543631
H      0.567363    1.354326    1.252523
H     -0.591046    0.580346    2.386438
H      1.632526   -0.418311    2.707495
H      0.507768   -1.639313    2.033053
H      1.871084   -1.809022    0.138842
H      3.297301   -0.742291   -1.656480
H      4.307082    0.678734   -1.233796
H      4.593348   -2.060225   -0.109542
H      5.538493   -0.721085    0.299294
H     -2.555814    1.263985    0.938041
H     -1.382713    2.076790   -0.153743
H     -2.150255    0.594422   -2.060261
H     -3.946766   -2.433830   -1.419209
H     -3.056734    2.749288   -1.757484
H     -4.224316    1.711358   -2.345069
