27

C      3.509446    1.046050   -0.824080
C      2.206165    0.910302   -0.023005
C      1.197059   -0.050500   -0.701670
C      1.743700   -1.449824   -0.763861
O      2.076571   -1.951121   -1.869966
O      1.900648   -2.191632    0.400846
N     -0.071427   -0.063567    0.033681
C     -1.290933   -0.541047   -0.557505
O     -1.299786   -0.933216   -1.756203
C     -2.572150   -0.585412    0.239435
C     -2.986191    0.823113    0.682311
N     -2.436348   -1.479963    1.394738
O      1.629909    2.179266    0.166073
H      3.298602    1.393199   -1.858101
H      4.042633    0.073211   -0.870373
H      4.177696    1.782937   -0.330167
H      2.464866    0.507303    0.981086
H      1.008865    0.319698   -1.735137
H     -0.080932    0.238625    1.034022
H     -3.382047   -0.979770   -0.416278
H     -2.241056    1.257317    1.381895
H     -3.081319    1.489280   -0.201857
H     -3.970354    0.783396    1.195582
H     -3.359116   -1.571234    1.878852
H     -1.732607   -1.111024    2.074661
H     -2.139270   -2.430466    1.073933
H      1.387376    2.535077   -0.729081
