28

C     -2.951503    1.323775   -1.174164
C     -2.876791   -0.123693   -0.673563
C     -1.475101   -0.666561   -0.812510
O     -1.271025   -1.651589   -1.573349
N     -0.381276   -0.077516   -0.090279
C      0.981396   -0.611949   -0.171325
C      1.990512    0.418464    0.373065
C      3.445017   -0.006444    0.129497
C      4.386748    1.044670    0.625594
O      4.762603    1.971134   -0.139825
O      4.810965    1.029720    1.948262
C      1.058675   -1.897889    0.603590
O      1.528523   -2.934460    0.064829
O      0.628432   -1.945474    1.924225
N     -3.338740   -0.222880    0.715761
H     -2.331248    1.996694   -0.545196
H     -4.002790    1.680633   -1.141648
H     -2.595975    1.383572   -2.225163
H     -3.555980   -0.732749   -1.313227
H     -0.569895    0.744579    0.526846
H      1.224985   -0.802178   -1.241163
H      1.822036    0.573176    1.462462
H      1.814368    1.390431   -0.139723
H      3.659736   -0.957873    0.661425
H      3.615003   -0.170385   -0.957100
H     -4.341724    0.068337    0.774188
H     -2.771277    0.390195    1.344884
H     -3.265675   -1.213743    1.043607
