20

C     -2.115592   -0.372532    0.489333
C     -1.603362    1.073758    0.441494
N     -0.160954    1.130009    0.716334
C      0.579166    0.273005   -0.226229
C      0.060045   -1.175252   -0.166439
N     -1.376188   -1.205172   -0.466347
C      2.054982    0.317736    0.074694
O      2.468880    0.079972    1.241519
N      2.997858    0.596957   -0.960995
H     -3.194268   -0.382023    0.222618
H     -2.012936   -0.778758    1.521253
H     -2.145503    1.680147    1.198869
H     -1.814006    1.516135   -0.557134
H     -0.004689    0.790311    1.695583
H      0.419365    0.659383   -1.258239
H      0.597848   -1.788986   -0.921884
H      0.253240   -1.618124    0.837795
H     -1.707158   -2.192072   -0.355422
H      2.683253    0.776688   -1.940142
H      4.020020    0.618818   -0.748986
