39

C     -3.471502   -0.244671   -0.009164
C     -3.802188    1.003347    0.528175
C     -3.037973    2.130933    0.211677
C     -1.938952    2.006690   -0.648776
C     -1.608213    0.760844   -1.189331
C     -2.373177   -0.374262   -0.874477
C     -1.989896   -1.726827   -1.419024
C     -1.259146   -2.578235   -0.358892
C     -0.857443   -3.931872   -0.882280
O     -0.467072   -4.818911   -0.078282
O     -0.871925   -4.208577   -2.245324
N     -0.090718   -1.875206    0.184232
C      1.068680   -1.518075   -0.585108
O      1.160040   -1.845548   -1.798996
C      2.166271   -0.717068    0.048310
C      1.765243    0.763943    0.136710
C      2.766135    1.645450    0.918100
C      2.820006    1.258852    2.375625
O      1.951831    1.700726    3.173813
O      3.790685    0.380691    2.843281
N      4.104793    1.633633    0.310845
O     -3.377708    3.367084    0.756606
H     -4.068003   -1.110540    0.250252
H     -4.651178    1.093183    1.193698
H     -1.339412    2.872817   -0.897050
H     -0.752618    0.680346   -1.848022
H     -2.912026   -2.258478   -1.741554
H     -1.358723   -1.606429   -2.325556
H     -1.976132   -2.755110    0.474080
H     -0.111467   -1.611892    1.196055
H      2.364946   -1.127288    1.061025
H      3.091335   -0.826346   -0.556928
H      0.769526    0.847741    0.626366
H      1.656792    1.170593   -0.893107
H      2.380185    2.689681    0.867595
H      4.554357    0.693832    0.397895
H      4.038240    1.892559   -0.700034
H      4.710301    2.339606    0.789365
H     -2.843895    4.202788    0.547330
