37

C      4.721316   -0.555941   -0.414717
C      3.797675    0.670414   -0.446799
C      4.526389    1.881452    0.152153
C      2.468050    0.428625    0.309827
C      1.527911   -0.591823   -0.374784
C      1.897984   -2.012590   -0.043254
O      1.988269   -2.871167   -0.960101
O      2.088963   -2.401623    1.277543
N      0.145837   -0.349486    0.048964
C     -0.703415    0.605394   -0.604503
O     -0.301883    1.222236   -1.628478
C     -2.092877    0.846079   -0.095881
C     -3.038457   -0.261226   -0.579849
C     -4.512935    0.011195   -0.208081
C     -5.401868   -0.988307   -0.899479
O     -5.374757   -2.203547   -0.568447
O     -6.243629   -0.576387   -1.924989
N     -4.727137   -0.040177    1.245138
H      5.715636   -0.303281   -0.841177
H      4.303380   -1.373739   -1.035182
H      4.862030   -0.916295    0.626870
H      3.570599    0.910449   -1.509247
H      5.461792    2.086909   -0.411063
H      4.781924    1.696546    1.217886
H      3.886549    2.787419    0.088283
H      2.670752    0.132755    1.362851
H      1.930189    1.401636    0.359150
H      1.594061   -0.464810   -1.478708
H     -0.201288   -0.798895    0.927378
H     -2.452446    1.835198   -0.455085
H     -2.063729    0.870869    1.013618
H     -2.958407   -0.331414   -1.688342
H     -2.715446   -1.237322   -0.154080
H     -4.790607    1.025505   -0.574811
H     -5.749593    0.028006    1.456953
H     -4.256112    0.769921    1.707395
H     -4.354720   -0.932577    1.644780
