38

C      4.463466    0.984629    0.720624
C      4.621411    1.618068   -0.532266
C      3.719214    1.359751   -1.580639
C      2.678958    0.463512   -1.338901
C      2.527530   -0.152939   -0.123074
C      3.402656    0.086205    0.936595
C      1.407376   -0.954586   -0.218721
C      0.920879   -0.769848   -1.509415
N      1.706725    0.094438   -2.191045
C      0.767857   -1.770611    0.868283
C     -0.031450   -0.886358    1.849569
C     -1.116337   -0.105757    1.149720
O     -1.072335    1.153708    1.173701
N     -2.175747   -0.784179    0.450139
C     -3.231298   -0.107758   -0.312204
C     -4.139069    0.719464    0.615522
O     -5.224463    1.248758   -0.098242
C     -2.637798    0.711177   -1.428221
O     -2.368132    0.160467   -2.529032
O     -2.344407    2.059832   -1.243523
N     -0.615813   -1.688385    2.926226
H      5.162262    1.192785    1.520307
H      5.440300    2.308635   -0.686198
H      3.828834    1.844296   -2.542204
H      3.274182   -0.400893    1.894407
H      0.033247   -1.232295   -1.920505
H      1.572727    0.418324   -3.174687
H      1.565270   -2.308983    1.424316
H      0.108989   -2.540537    0.412286
H      0.676110   -0.161041    2.312293
H     -2.186609   -1.828629    0.455189
H     -3.871360   -0.891229   -0.777334
H     -3.576079    1.559820    1.070886
H     -4.507221    0.078447    1.449105
H     -5.861501    0.501306   -0.243968
H     -1.926935    2.607299   -1.986486
H      0.161019   -2.098043    3.494699
H     -1.152455   -2.488849    2.519434
