15

C      2.143560   -0.522093   -0.244350
C      0.673379   -0.251935   -0.187526
N     -0.144238   -0.781203   -1.011998
C     -1.503420   -0.384607   -0.774480
C     -1.449431    0.562881    0.429597
C      0.029503    0.639225    0.811009
H      2.544398   -0.200064   -1.228138
H      2.670101    0.034946    0.558968
H      2.328822   -1.608336   -0.110310
H     -1.904633    0.134629   -1.671191
H     -2.121193   -1.280066   -0.548258
H     -1.834375    1.568887    0.153210
H     -2.050369    0.157988    1.273133
H      0.200140    0.254106    1.839343
H      0.417756    1.675642    0.710992
