40

C      2.955259   -0.706040    0.268554
C      1.661043   -0.084917   -0.270867
C      0.475351   -1.038347   -0.088647
N     -0.762465   -0.431700   -0.578006
C     -2.005605   -1.145033   -0.549530
O     -2.046390   -2.335937   -0.137663
C     -3.274928   -0.465348   -0.965934
C     -3.912306    0.255446    0.230242
C     -5.201897    1.005824   -0.158814
C     -6.277784    0.040538   -0.576759
O     -6.806594   -0.727138    0.272556
O     -6.677669   -0.017882   -1.908111
N     -5.675419    1.802523    0.974763
C      4.150667    0.232039    0.047644
C      5.484821   -0.401915    0.502448
C      6.645356    0.439091    0.041855
O      7.440435   -0.014841   -0.823549
O      6.851215    1.721637    0.546823
N      5.552830   -0.568358    1.957806
H      2.831244   -0.905690    1.354693
H      3.144356   -1.670794   -0.251634
H      1.454372    0.864691    0.271165
H      1.779407    0.143386   -1.353929
H      0.668487   -1.978520   -0.649746
H      0.357284   -1.283310    0.989821
H     -0.754746    0.547086   -0.946803
H     -3.975821   -1.225838   -1.373943
H     -3.054745    0.266113   -1.774061
H     -4.133715   -0.478963    1.037678
H     -3.177771    0.988288    0.632073
H     -4.978996    1.690495   -1.008914
H     -7.394756   -0.667883   -2.206204
H     -6.522391    2.337498    0.669941
H     -4.949945    2.521731    1.204051
H      3.976966    1.189232    0.586412
H      4.219198    0.463764   -1.038703
H      5.580143   -1.405731    0.027094
H      6.223151    2.130693    1.227345
H      4.946958   -1.372944    2.238260
H      5.185399    0.287053    2.435043
