35

C     -4.105843    0.027324   -0.198369
C     -3.055420   -0.431587    0.823611
C     -3.613386   -0.268262    2.244500
C     -1.721114    0.344592    0.690285
C     -0.922378    0.022418   -0.596605
C     -1.441571    0.775291   -1.789355
O     -1.544483    2.031439   -1.755787
O     -1.768536    0.085342   -2.952577
N      0.490606    0.361797   -0.406390
C      1.537276   -0.251738   -1.173120
O      1.267203   -1.146538   -2.019742
C      2.968796    0.133591   -0.938916
C      3.604098   -0.737971    0.157862
C      5.084815   -0.463474    0.269619
O      5.906930   -1.398594    0.081350
O      5.564338    0.806554    0.583655
N      2.935938   -0.523098    1.444315
H     -4.222023    1.131997   -0.175520
H     -3.821296   -0.293585   -1.219961
H     -5.090397   -0.437995    0.022195
H     -2.861905   -1.515688    0.664862
H     -3.830323    0.800517    2.458912
H     -4.549252   -0.855477    2.362210
H     -2.882287   -0.643329    2.992271
H     -1.081780    0.060149    1.556052
H     -1.900244    1.439175    0.778133
H     -1.004446   -1.070303   -0.789423
H     -2.107289    0.577654   -3.770366
H      0.743535    1.135223    0.250746
H      3.534480    0.007179   -1.888504
H      3.019965    1.208492   -0.661773
H      3.467478   -1.805377   -0.130765
H      4.940525    1.587835    0.742895
H      3.089425    0.461145    1.763124
H      3.368566   -1.154699    2.157352
