35

C      4.124216   -0.664953    1.999138
C      3.796460   -0.889149    0.681058
N      4.921688   -0.878486   -0.049688
C      5.911437   -0.663300    0.836855
N      5.461063   -0.526184    2.102972
C      2.412873   -1.029176    0.117023
C      1.762670    0.342648   -0.138534
C      2.500998    1.089293   -1.214828
O      3.211839    2.085893   -0.919910
O      2.425534    0.667058   -2.536715
N      0.361514    0.173261   -0.534023
C     -0.571308    1.263628   -0.525219
O     -0.209011    2.409782   -0.143922
C     -1.997278    1.035337   -0.925975
C     -2.795635    0.449447    0.246630
C     -4.282574    0.234425   -0.108867
C     -4.440872   -0.818326   -1.175717
O     -4.101171   -2.010800   -0.952825
O     -4.956363   -0.473959   -2.418906
N     -5.047781   -0.139119    1.086733
H      3.435683   -0.595768    2.830886
H      5.012725   -0.997810   -1.083022
H      6.956417   -0.597965    0.564163
H      1.791725   -1.599644    0.841600
H      2.453381   -1.618085   -0.825530
H      1.795694    0.923283    0.811470
H      0.020603   -0.768017   -0.836897
H     -2.020757    0.340542   -1.792634
H     -2.451084    1.998711   -1.246342
H     -2.730064    1.154584    1.104813
H     -2.341397   -0.515065    0.565985
H     -4.692899    1.194089   -0.497913
H     -6.051847   -0.289524    0.833609
H     -5.001619    0.631878    1.792164
H     -4.664859   -1.015108    1.512367
