13

C     -0.684965   -1.020221    0.553401
C     -1.084481    0.139369   -0.081038
O     -0.036662    0.836413   -0.456452
C      1.042731    0.181371   -0.094119
C      0.694059   -0.993665    0.545282
C      2.409051    0.650547   -0.343763
O      2.600917    1.742959   -0.938832
O      3.497827   -0.104998    0.073426
C     -2.471028    0.548540   -0.310660
O     -2.723223    1.630584   -0.902107
H     -1.318736   -1.791448    0.971202
H      1.360151   -1.741041    0.956058
H     -3.285639   -0.078409    0.027604
