34

C      3.633946   -1.551678    0.849307
C      4.121557   -0.104061    0.689084
C      3.273882    0.690205   -0.334824
C      1.837511    0.817787    0.120742
O      1.558571    1.561616    1.100772
N      0.812998    0.031762   -0.509294
C     -0.594739    0.215511   -0.281971
C     -1.447144   -0.898244   -0.320142
C     -2.827848   -0.746793   -0.122089
C     -3.681017   -1.861393   -0.144814
C     -5.054954   -1.697553    0.054144
C     -5.586757   -0.424378    0.275763
C     -4.748384    0.693916    0.299605
C     -3.366912    0.542776    0.102155
C     -2.515938    1.656428    0.117249
C     -1.141967    1.495028   -0.079943
N      3.863062    2.013696   -0.557811
O      5.478525   -0.095413    0.320030
H      4.304342   -2.098008    1.546106
H      3.634497   -2.075386   -0.130440
H      2.606737   -1.573310    1.270491
H      4.041702    0.392795    1.681049
H      3.295637    0.144817   -1.304759
H      1.112338   -0.782200   -1.092787
H     -1.028496   -1.883044   -0.493640
H     -3.286480   -2.856017   -0.315367
H     -5.709256   -2.559582    0.036297
H     -6.651467   -0.303858    0.428701
H     -5.178199    1.673616    0.471304
H     -2.913751    2.652297    0.272671
H     -0.512471    2.374601   -0.099099
H      3.288489    2.522757   -1.268945
H      3.831148    2.568039    0.329202
H      5.550837   -0.536728   -0.566984
