14

C     -2.212124   -0.307188   -0.236258
C     -0.724004   -0.189616   -0.108735
N      0.067893   -1.244077   -0.434784
N      1.395485   -1.173106   -0.332981
C      1.998386   -0.034822    0.103290
O      3.254020    0.020921    0.195561
N      1.240301    1.042444    0.439337
C     -0.114590    0.988647    0.342011
O     -0.808845    1.993401    0.656177
H     -2.493343   -1.315372   -0.608047
H     -2.589299    0.453430   -0.951794
H     -2.687964   -0.148183    0.754239
H      1.971375   -2.004850   -0.592984
H      1.702708    1.918370    0.774965
