27

C      1.381756   -1.444419   -0.044531
C      1.486619    0.000150   -0.584139
C      0.226116    0.460096   -1.373941
C     -1.075469    0.245482   -0.619151
C     -1.548771    1.246571    0.249268
C     -2.728685    1.057460    0.974679
C     -3.445946   -0.133772    0.847257
C     -2.982838   -1.139576   -0.003586
C     -1.803397   -0.955876   -0.731741
O      0.168874   -0.091326   -2.669024
N      1.743449    0.960785    0.508315
C      3.156861    1.006218    0.892301
H      1.155364   -2.163865   -0.856476
H      0.594468   -1.524213    0.734257
H      2.345798   -1.757802    0.404971
H      2.333167    0.025388   -1.308485
H      0.339681    1.555833   -1.532594
H     -1.002319    2.174145    0.367062
H     -3.085473    1.834430    1.638390
H     -4.358500   -0.279099    1.410799
H     -3.536309   -2.065117   -0.096298
H     -1.461020   -1.756723   -1.372652
H      0.342583   -1.063966   -2.611512
H      1.176519    0.710486    1.352463
H      3.788450    1.285754    0.022018
H      3.296782    1.780988    1.675101
H      3.492239    0.031969    1.305771
