22

C      2.283677   -0.411527   -0.835243
C      1.465140    0.392536    0.177144
C     -0.018590    0.573277   -0.258998
C     -0.461076    2.021254    0.032699
C     -0.974839   -0.445978    0.442208
C     -2.403887   -0.246619   -0.000751
O     -2.732880   -0.440429   -1.201261
O     -3.365745    0.157564    0.916620
N     -0.580693   -1.839397    0.188657
H      3.327098   -0.514149   -0.469410
H      2.305159    0.114981   -1.813105
H      1.864845   -1.426429   -0.981745
H      1.971406    1.377665    0.281521
H      1.529542   -0.089825    1.176326
H     -0.097798    0.432100   -1.360886
H     -1.486616    2.210400   -0.347439
H      0.212408    2.740898   -0.480339
H     -0.437783    2.223075    1.125207
H     -0.931312   -0.266061    1.540813
H     -0.481601   -2.014146   -0.838030
H     -1.304036   -2.490691    0.573185
H      0.317580   -2.058497    0.674696
