29

C      5.143345    0.576371   -0.441189
C      3.836502    0.075870    0.081379
O      3.765027   -1.083536    0.571700
N      2.684416    0.929637    0.062882
C      1.377349    0.498818    0.554292
C      0.716395   -0.452051   -0.446072
C     -0.637230   -0.872404    0.042292
C     -0.931622   -2.004814    0.795774
N     -2.244551   -2.026960    1.120817
C     -2.777708   -0.912397    0.590508
C     -4.102140   -0.485283    0.676868
C     -4.441424    0.733399    0.060857
C     -3.459863    1.490964   -0.616290
C     -2.130349    1.036132   -0.685496
C     -1.826002   -0.178520   -0.070396
H      5.851970   -0.266147   -0.588920
H      5.579573    1.295496    0.282772
H      4.987967    1.086331   -1.414903
H      2.792532    1.916138   -0.264897
H      1.491284    0.004949    1.544251
H      0.729989    1.392982    0.690561
H      1.348737   -1.354211   -0.588522
H      0.615008    0.052276   -1.431083
H     -0.221585   -2.763462    1.098426
H     -2.736945   -2.756207    1.683137
H     -4.845786   -1.069542    1.203228
H     -5.460576    1.094194    0.109010
H     -3.731813    2.428465   -1.083502
H     -1.372501    1.613512   -1.198779
