18

C     -1.991792   -1.459595   -0.227367
N     -1.063014   -0.334707   -0.062976
C      0.283035   -0.539856    0.010405
C      1.164330    0.479862    0.124107
C      0.721805    1.791221    0.158282
O      1.530136    2.752060    0.262774
N     -0.622977    2.012035    0.069373
C     -1.511623    0.969519   -0.049174
O     -2.744281    1.220130   -0.148240
N      2.409605   -0.007183    0.173017
C      2.233752   -1.348557    0.083040
N      0.929466   -1.721036   -0.020416
H     -1.556850   -2.402093    0.168464
H     -2.226237   -1.593571   -1.304277
H     -2.933595   -1.274233    0.332014
H     -0.982181    2.993977    0.084944
H      3.308197    0.518176    0.255499
H      3.052223   -2.056148    0.090531
