16

C      0.588392   -0.060703    0.084934
C     -0.275632   -0.224014    1.093588
C     -1.739615   -0.307483    0.905673
O     -2.408233   -0.958612    1.751611
C     -2.455442    0.370709   -0.197489
O     -1.898289    1.290917   -0.852011
O     -3.771730    0.031461   -0.502534
C      2.041983   -0.014782    0.346195
C      2.980120    0.167058   -0.592922
O      2.706480    0.354238   -1.949713
H      0.214406   -0.001025   -0.924530
H      0.104717   -0.370581    2.098350
H     -4.262429   -0.701069   -0.003980
H      2.381732   -0.137511    1.368527
H      4.017897    0.172742   -0.285012
H      1.775644    0.388655   -2.340686
