45

C     -1.556301   -1.440139   -2.090707
C     -2.085789   -1.132436   -0.671109
C     -1.931572   -2.354815    0.293331
N     -0.808652   -2.270989    1.269469
C      0.285828   -1.407381    0.762651
C      1.631947   -1.592332    1.526706
C      2.643479   -0.682522    0.902018
C      4.026883   -0.633170    1.030309
N      4.495718    0.534705    0.517797
C      3.412048    1.220160    0.102232
C      3.337097    2.549296   -0.306639
C      2.053227    3.116928   -0.446380
C      0.889526    2.352843   -0.175934
C      0.991383    0.977439    0.154654
C      2.283427    0.491282    0.314505
C     -0.161624    0.094007    0.654253
C     -1.531283    0.212225   -0.104058
O     -1.476391    1.190087   -1.145971
C     -2.600003    1.847681   -1.660197
O     -3.748345    1.638018   -1.183570
C     -2.424139    2.850071   -2.748704
C     -1.308518   -1.886381    2.608406
H     -0.452084   -1.399013   -2.149892
H     -1.899484   -2.439346   -2.432691
H     -1.957526   -0.701683   -2.816312
H     -3.181597   -0.988822   -0.806652
H     -2.902170   -2.502872    0.821540
H     -1.818079   -3.285886   -0.306977
H     -0.418201   -3.238872    1.371551
H      0.536098   -1.756731   -0.261569
H      1.979310   -2.645085    1.453135
H      1.535271   -1.312301    2.594350
H      4.643865   -1.368726    1.529339
H      5.484267    0.870579    0.534682
H      4.229767    3.145025   -0.446104
H      1.957831    4.162884   -0.707277
H     -0.065479    2.858209   -0.176085
H     -0.330451    0.455666    1.692156
H     -2.268317    0.564658    0.653733
H     -3.292939    2.820240   -3.439586
H     -1.501020    2.625630   -3.323174
H     -2.339980    3.864365   -2.306470
H     -1.905859   -0.951069    2.571427
H     -0.483492   -1.764300    3.337083
H     -1.967678   -2.687128    3.010731
