20

C      0.175789    1.318946   -0.314515
C      0.578675    1.060603    0.932543
C      0.492882    2.067960    2.001684
O      0.609097    1.708206    3.203330
O      0.299002    3.414046    1.696146
C      0.354156    0.317024   -1.407598
C     -0.115607   -0.947947   -1.309132
C     -0.960223   -1.453418   -0.208982
O     -1.752947   -0.670797    0.385032
C     -0.925180   -2.870043    0.182318
O     -0.107350   -3.673639   -0.353421
O     -1.818972   -3.325291    1.153187
N      1.032919    0.723858   -2.604034
O      0.849317    1.867806   -3.069400
O      1.965158   -0.100292   -3.186009
H     -0.083394    2.331846   -0.594129
H      0.914754    0.062312    1.195476
H      0.238565    4.112023    2.432612
H      0.104976   -1.641133   -2.110963
H     -1.851618   -4.302070    1.411834
