50

C      3.093560   -1.222916    0.595182
C      4.050701   -0.046362    0.325468
C      3.456592    0.895594   -0.745527
C      2.049734    1.385514   -0.325006
C      1.087351    0.201348   -0.046764
C      1.701854   -0.724585    1.031964
N      0.821487   -1.866991    1.302537
O     -0.147309    0.703833    0.444654
C     -1.134594    0.812304   -0.571510
C     -2.024085    2.066793   -0.315974
C     -3.459524    1.828496   -0.810725
C     -4.060025    0.529933   -0.208335
C     -2.951399   -0.467562    0.219726
O     -1.860446   -0.409983   -0.681500
C     -3.519552   -1.900390    0.244670
N     -2.545725   -2.861360    0.760573
O     -4.846481    0.839146    0.914851
O     -3.503247    1.808415   -2.218277
O     -2.064308    2.382221    1.054828
O      1.517597    2.246605   -1.300695
O      4.306780    2.002312   -0.910437
N      5.364792   -0.551223   -0.095012
H      2.998233   -1.848671   -0.320159
H      3.521024   -1.859490    1.400599
H      4.179381    0.525985    1.273282
H      3.377574    0.329986   -1.705276
H      2.154201    1.974539    0.613611
H      0.965833   -0.406611   -0.976908
H      1.819900   -0.143273    1.975925
H      0.661881   -2.421029    0.429851
H      1.252568   -2.486094    2.027020
H     -0.093774   -1.527862    1.675246
H     -0.679853    0.988415   -1.572487
H     -1.604229    2.935076   -0.879204
H     -4.077307    2.696273   -0.489365
H     -4.705330    0.050908   -0.983973
H     -2.605823   -0.225055    1.252791
H     -4.427583   -1.926805    0.887975
H     -3.820697   -2.201488   -0.783828
H     -2.983622   -3.810525    0.782842
H     -1.708902   -2.895579    0.135713
H     -2.262820   -2.600672    1.732742
H     -5.705477    1.203197    0.574656
H     -3.041787    0.988092   -2.531909
H     -1.251342    2.916465    1.254319
H      1.494355    1.748573   -2.159573
H      4.137780    2.365212   -1.818935
H      6.033825    0.243375   -0.214795
H      5.286912   -1.074738   -0.997586
H      5.751324   -1.189346    0.638173
