29

C     -3.981616   -0.145806   -0.250654
C     -2.812976    0.577207   -0.333403
N     -3.018744    1.789899    0.202312
C     -4.308507    1.786947    0.587574
N     -4.931122    0.616771    0.327337
C     -1.492490    0.086218   -0.850265
C     -0.565427   -0.359410    0.295072
C     -1.126206   -1.566430    0.994713
O     -1.603354   -1.460432    2.155137
O     -1.145582   -2.799806    0.354589
N      0.768559   -0.671988   -0.225636
C      1.912674   -0.795890    0.631884
O      1.798893   -0.619755    1.875418
C      3.263871   -1.090264    0.049751
C      4.015519    0.200086   -0.288228
N      3.320830    0.948764   -1.332370
H     -4.132451   -1.165693   -0.578945
H     -2.327915    2.565544    0.309140
H     -4.793863    2.629070    1.062851
H     -1.007745    0.914355   -1.411491
H     -1.655093   -0.751744   -1.563596
H     -0.476255    0.484923    1.016131
H      0.900653   -0.812778   -1.253513
H      3.859430   -1.673659    0.785002
H      3.156348   -1.716070   -0.862470
H      5.043473   -0.054386   -0.630383
H      4.103483    0.829613    0.624815
H      3.839818    1.844365   -1.480342
H      3.395794    0.410351   -2.226138
