46

C      5.675131    1.581132   -1.528347
C      5.082064    0.285113   -1.080055
O      5.704208   -0.791427   -1.290431
N      3.802137    0.268882   -0.436013
C      3.190442   -0.987629    0.004968
C      1.804365   -0.792090    0.662113
C      0.734916   -0.181349   -0.302322
C     -0.625433    0.086773    0.408801
C     -1.720838    0.718719   -0.508275
C     -2.666455   -0.324779   -1.125427
C     -3.106127   -1.333612   -0.066153
C     -1.900613   -1.959660    0.654796
O     -1.060149   -0.977937    1.253760
C     -2.447110   -2.845413    1.754483
O     -2.461651   -2.439471    2.947231
O     -2.987895   -4.095133    1.459826
O     -1.170575   -2.757171   -0.242044
O     -2.038496   -0.974838   -2.200493
N     -2.494732    1.717979    0.245519
C     -1.989440    3.033277    0.517748
O     -0.844579    3.375157    0.114522
C     -2.817378    4.001985    1.297251
O      0.565601   -0.931287   -1.482397
O      1.926920   -0.047450    1.850187
H      5.074169    1.992287   -2.365913
H      6.721733    1.434826   -1.870498
H      5.671520    2.304590   -0.686528
H      3.321525    1.183288   -0.286325
H      3.101208   -1.673647   -0.863947
H      3.864195   -1.475237    0.742769
H      1.453062   -1.803851    0.957008
H      1.108061    0.813750   -0.625814
H     -0.365537    0.895733    1.125420
H     -1.228107    1.248034   -1.355158
H     -3.570607    0.203255   -1.511546
H     -3.717167   -2.128241   -0.549260
H     -3.760603   -0.824185    0.675153
H     -3.024976   -4.444640    0.509930
H     -0.428604   -3.174690    0.269850
H     -2.750916   -1.434925   -2.717012
H     -3.462447    1.493369    0.570220
H     -2.955035    3.622083    2.330995
H     -2.322298    4.995624    1.339338
H     -3.810781    4.115941    0.814735
H      0.830471   -1.871336   -1.319884
H      2.096821    0.898203    1.605207
