46

C     -2.469673   -1.561945    1.329281
C     -3.483621   -0.965960    0.323482
C     -2.798299   -0.140314   -0.793389
C     -1.753948    0.873916   -0.259036
C     -0.723608    0.219070    0.690965
C     -1.382134   -0.587726    1.838600
N     -1.861338    0.272114    2.931610
O      0.095165   -0.669065   -0.058095
C      1.339750   -0.082688   -0.392190
C      1.988937   -0.882216   -1.544838
C      3.528510   -0.722235   -1.541172
C      3.935271    0.613301   -0.896648
C      3.351056    0.697187    0.547507
O      2.187678   -0.101925    0.743971
C      3.075455    2.120734    0.956203
O      3.986723    2.929134    1.039378
O      5.336398    0.706974   -0.860041
O      4.003961   -0.790347   -2.861523
O      1.658554   -2.244128   -1.433809
O     -2.379396    1.958523    0.375798
O     -2.178143   -1.026653   -1.692049
N     -4.568050   -0.221246    0.982786
H     -1.948862   -2.402107    0.817211
H     -3.004211   -2.021961    2.188568
H     -3.963767   -1.840948   -0.175043
H     -3.591288    0.420314   -1.342966
H     -1.187199    1.272942   -1.133335
H     -0.128296    1.035392    1.169559
H     -0.579204   -1.227341    2.274842
H     -2.308878   -0.310519    3.676110
H     -2.543779    0.984849    2.604677
H     -1.049282    0.771312    3.363153
H      1.184271    0.964946   -0.755138
H      1.571092   -0.479060   -2.498046
H      3.971379   -1.550728   -0.935962
H      3.520570    1.434835   -1.530056
H      4.119077    0.302255    1.248307
H      2.064425    2.434415    1.196682
H      5.557732    1.667719   -0.746656
H      4.960548   -1.051486   -2.812856
H      1.840886   -2.655455   -2.318832
H     -2.788063    2.516342   -0.337017
H     -2.029277   -0.527506   -2.537824
H     -4.264255    0.718920    1.306873
H     -5.354525   -0.089224    0.306910
H     -4.938343   -0.762412    1.797022
