39

C      0.858980   -2.719912   -1.134721
C      0.651898   -1.234326   -1.474991
C      0.282412   -0.341059   -0.244815
C     -0.982180   -0.832730    0.510377
C     -2.195377   -0.033192   -0.015446
C     -1.612640    1.170387   -0.787373
C     -0.088567    1.077694   -0.711714
C      0.495781    1.968483    0.329509
C      1.357975    1.332987    1.107813
C      1.485911   -0.115039    0.736503
C      2.892933   -0.407346    0.144145
C      2.923756   -0.298035   -1.349028
O      3.950735    0.136449   -1.933088
O      1.828580   -0.722373   -2.099272
C      2.080079    1.948413    2.245732
O      2.730312    1.211423    3.032862
O      2.070160    3.323762    2.476207
C     -3.057965   -0.913449   -0.946186
C     -3.073797    0.455199    1.156649
H      1.396772   -2.849375   -0.173977
H     -0.116542   -3.245328   -1.073095
H      1.445709   -3.212818   -1.938666
H     -0.165188   -1.181152   -2.225106
H     -1.139027   -1.926823    0.431265
H     -0.864337   -0.641686    1.600500
H     -1.910565    1.139351   -1.859343
H     -1.975914    2.147525   -0.396011
H      0.365837    1.348778   -1.690895
H      0.252657    3.018760    0.405770
H      1.375089   -0.735877    1.653354
H      3.193004   -1.442052    0.412321
H      3.660744    0.264588    0.586404
H      1.609000    3.980715    1.861588
H     -3.469661   -1.783130   -0.389905
H     -2.460359   -1.299271   -1.797694
H     -3.908791   -0.327680   -1.356402
H     -2.491238    1.116504    1.834564
H     -3.449855   -0.408131    1.747045
H     -3.946322    1.029768    0.777249
