47

H      0.000000    0.000000    0.000000
C     -2.654939    0.728832    3.045014
C     -3.182474    0.298542    1.703164
C     -4.491110    0.636183    1.327096
C     -5.006056    0.252018    0.081181
C     -4.185934   -0.474050   -0.801217
C     -2.882896   -0.843205   -0.433416
C     -2.368661   -0.433989    0.816547
N     -1.026468   -0.773205    1.198955
C      0.139983   -0.181897    0.605080
N      1.365760   -0.682347    0.915598
C      2.503516   -0.159552    0.385091
N      2.424348    0.907406   -0.455638
C      1.225336    1.447597   -0.790864
C      0.050036    0.915215   -0.265053
N      3.775241   -0.705485    0.763340
C      5.015303   -0.398519    0.103983
C      6.198837   -0.341888    0.855608
C      7.421137   -0.068302    0.234108
C      7.474695    0.135396   -1.149845
C      6.302119    0.056317   -1.910722
C      5.079229   -0.216108   -1.289595
C      8.733304    0.414361   -1.790277
N      9.745162    0.638623   -2.305154
C     -2.043018   -1.633416   -1.401578
C     -6.389958    0.658598   -0.269444
C     -7.129357    0.054441   -1.205324
C     -8.470958    0.499366   -1.472728
N     -9.550277    0.857048   -1.688078
H     -2.449851   -0.165878    3.669201
H     -3.380765    1.373196    3.584997
H     -1.714757    1.304898    2.912727
H     -5.114915    1.201324    2.010205
H     -4.544563   -0.745192   -1.784792
H     -0.896706   -1.431530    1.999727
H      1.185565    2.295330   -1.461622
H     -0.902391    1.357428   -0.526048
H      3.808095   -1.301453    1.621391
H      6.171142   -0.500500    1.926476
H      8.323373   -0.018205    0.831881
H      6.334360    0.195760   -2.984655
H      4.192003   -0.309716   -1.901419
H     -1.400053   -2.360859   -0.862773
H     -1.403747   -0.943532   -1.990332
H     -2.681855   -2.211344   -2.103011
H     -6.836423    1.467549    0.299783
H     -6.760413   -0.795255   -1.761156
