43

C     -6.058512    2.009121   -0.542380
C     -5.002042    1.129685    0.124721
C     -4.647951   -0.118985   -0.702158
C     -4.051927    0.171647   -2.094657
C     -2.733576    0.959821   -2.067235
C     -1.647138    0.197402   -1.361102
C     -1.149392    0.611293   -0.187812
C     -0.095095   -0.092854    0.575092
C      0.320041   -1.344575    0.328565
C      1.390973   -2.004245    1.157012
C      2.746059   -1.299861    0.957711
C      3.883059   -2.085225    1.563245
C      5.177664   -1.802175    1.356952
C      5.671677   -0.665913    0.556547
C      5.335696    0.599456    0.827570
C      5.866735    1.730213    0.051759
O      5.548778    2.905608    0.373693
O      6.710729    1.517272   -1.035137
O      1.014196   -1.971434    2.511073
H     -5.642675    2.503461   -1.444594
H     -6.379813    2.801491    0.166101
H     -6.946674    1.404768   -0.824648
H     -5.401378    0.791186    1.105099
H     -4.093966    1.730566    0.337017
H     -5.566432   -0.731127   -0.834856
H     -3.934138   -0.740200   -0.119469
H     -4.792009    0.723088   -2.711867
H     -3.876268   -0.798971   -2.608574
H     -2.891390    1.965344   -1.622341
H     -2.405265    1.128375   -3.114959
H     -1.295887   -0.708988   -1.832378
H     -1.512195    1.539193    0.237342
H      0.338381    0.446225    1.408830
H     -0.125884   -1.934310   -0.459693
H      1.477289   -3.059881    0.803621
H      2.702021   -0.292823    1.420596
H      2.935310   -1.183903   -0.132548
H      3.655759   -2.979932    2.130332
H      5.915768   -2.505605    1.720940
H      6.411582   -0.877783   -0.204728
H      4.680683    0.818098    1.661223
H      7.073717    2.295886   -1.571893
H      1.393490   -2.780410    2.942778
