13

C      1.406259   -0.506815    0.478942
C      2.213287    0.046185   -0.614980
N      2.849398    0.482601   -1.477559
N      0.023321   -0.718446    0.034167
C     -0.746038    0.531656    0.077002
C     -2.101847    0.307836   -0.510668
O     -2.270780    0.376238   -1.756481
O     -3.169817   -0.027886    0.311643
H      1.852810   -1.481767    0.770717
H      1.454500    0.167518    1.362804
H     -0.422763   -1.387686    0.705664
H     -0.232061    1.326007   -0.508276
H     -0.856270    0.884558    1.127027
