24

C      3.101990    1.761259    0.313044
C      3.554913    0.698293    1.068252
N      2.666100   -0.307725    0.998192
C      1.647715    0.085503    0.207587
C      1.890025    1.376884   -0.234636
C      0.461470   -0.739939   -0.106115
O      0.307882   -1.847323    0.476635
N     -0.512409   -0.299529   -1.066164
C     -1.766227   -1.017311   -1.296722
C     -2.740359   -0.816244   -0.131672
C     -3.109460    0.629340    0.023619
O     -2.512213    1.342668    0.872172
O     -4.080976    1.203114   -0.791090
O      2.786568   -1.528417    1.625809
H      3.596669    2.713865    0.179076
H      4.476442    0.665767    1.634673
H      1.262700    1.986320   -0.870178
H     -0.310010    0.527865   -1.669306
H     -1.559019   -2.100973   -1.430797
H     -2.235839   -0.649837   -2.235635
H     -2.292659   -1.196068    0.811789
H     -3.661846   -1.406265   -0.323892
H     -4.563972    0.656554   -1.494056
H      3.592514   -1.737801    2.203014
