28

C     -3.655478   -0.027835    2.247733
O     -3.826869    0.008791    0.834599
C     -2.775576    0.015660   -0.096340
C     -3.084793    0.052979   -1.467391
C     -2.058826    0.054426   -2.415661
C     -0.722183    0.025118   -2.014499
C     -0.390032    0.003929   -0.647195
C     -1.424315   -0.014539    0.303428
C      1.015008   -0.041064   -0.171408
C      2.057412    0.394036   -0.895717
C      3.454438    0.358294   -0.412160
O      4.344248    0.890522   -1.130884
C      3.829105   -0.273406    0.907639
C      5.312736   -0.343262    1.107286
O      5.964294   -1.330652    0.675864
O      5.981207    0.704937    1.727098
O     -4.408044    0.084753   -1.907436
H     -3.119125   -0.954110    2.543615
H     -3.092079    0.866773    2.587527
H     -4.652559   -0.024745    2.733669
H     -2.299817    0.070808   -3.471153
H      0.040811   -0.005783   -2.779829
H     -1.169422   -0.043266    1.354715
H      1.180975   -0.403554    0.835018
H      1.893490    0.829764   -1.872016
H      3.413642   -1.303153    0.954850
H      3.382855    0.320338    1.733620
H     -5.191102    0.084239   -1.264971
