19

C     -0.615347    0.967545   -1.091766
C      0.520078    1.776352   -1.045778
C      1.650958    1.371777   -0.329669
C      1.652025    0.136452    0.359598
C      0.498423   -0.669458    0.303690
C     -0.630327   -0.265583   -0.426905
C     -1.865397   -1.125215   -0.450495
C     -2.721011   -0.846820    0.747307
O     -3.274494    0.233917    0.874639
N      2.798375   -0.310465    1.114520
O      3.831967    0.384696    1.194124
O      2.771777   -1.521878    1.767304
O      2.761296    2.208741   -0.312300
H     -1.483633    1.303283   -1.645310
H      0.521431    2.725135   -1.567459
H      0.471503   -1.615484    0.829865
H     -2.454264   -0.943285   -1.375726
H     -1.576068   -2.198433   -0.450931
H     -2.857290   -1.611274    1.505291
