35

C     -1.603580    2.567741   -0.567805
C     -1.735181    1.241133    0.140634
C     -2.957554    0.757309    0.429661
C     -3.119287   -0.565837    1.132404
C     -2.121055   -1.655272    0.662168
C     -0.852927   -1.120872   -0.087454
C     -0.536050    0.341088    0.412282
C      0.813216    0.902099   -0.121457
C      1.900377   -0.106731    0.088645
C      1.680750   -1.451681    0.209841
C      0.338968   -2.035373    0.179851
O      0.195126   -3.284044    0.280614
O      2.817137   -2.095362    0.346335
C      3.794945   -1.212170    0.305460
C      3.268307    0.057332    0.122482
C      4.026321    1.343137    0.064756
C     -1.111320   -1.142812   -1.615150
H     -2.558890    3.135153   -0.559125
H     -0.839077    3.193894   -0.063883
H     -1.307203    2.398644   -1.623842
H     -3.850685    1.321184    0.175173
H     -4.161797   -0.927737    1.002606
H     -2.967851   -0.385044    2.218956
H     -1.811589   -2.217715    1.571551
H     -2.661785   -2.391503    0.026944
H     -0.426581    0.293614    1.520897
H      1.075072    1.832430    0.426475
H      0.748696    1.133843   -1.204821
H      4.844051   -1.459171    0.400895
H      3.583963    2.008332   -0.706158
H      3.978006    1.845394    1.053159
H      5.088504    1.151535   -0.195741
H     -0.230066   -0.768388   -2.176669
H     -1.990771   -0.523627   -1.888970
H     -1.310189   -2.180522   -1.960715
