41

C      3.788357   -2.193562   -0.400109
C      5.155894   -2.041221   -0.631120
C      5.779545   -0.804127   -0.440491
C      5.013243    0.295244    0.001405
C      3.641523    0.132795    0.237171
C      3.010989   -1.106405    0.022437
C      1.555676   -1.294553    0.252892
O      1.132519   -2.441653    0.565502
C      0.555438   -0.165288    0.120466
C     -0.547015   -0.527825   -0.895540
C     -1.592347    0.590533   -1.032702
C     -1.205075    1.856259   -1.715513
O     -1.913775    0.838330   -2.388222
O     -2.040905    2.952994   -1.487760
C     -2.828445    0.546437   -0.169831
C     -3.907485   -0.280568   -0.521780
C     -5.033048   -0.373675    0.313126
C     -5.086928    0.377164    1.502046
C     -4.009685    1.197645    1.852511
C     -2.884684    1.280856    1.024374
O     -6.198549    0.313373    2.343266
O     -6.090638   -1.214218   -0.027752
O      0.016421    0.152976    1.380453
O      5.568196    1.556276    0.223052
O      7.148017   -0.713693   -0.699201
H      3.336297   -3.163963   -0.562566
H      5.735530   -2.890147   -0.965828
H      3.081046    0.981562    0.607777
H      1.060408    0.741038   -0.272199
H     -1.060831   -1.466362   -0.588257
H     -0.069323   -0.726693   -1.880218
H     -0.194763    2.016014   -2.150627
H     -1.582842    3.482065   -0.780183
H     -3.862650   -0.862811   -1.434075
H     -4.044668    1.767237    2.772438
H     -2.054606    1.913279    1.319384
H     -7.023157   -0.233178    2.108756
H     -6.076116   -1.765623   -0.878428
H     -0.503488   -0.633890    1.701209
H      6.543363    1.777116    0.091271
H      7.688558    0.130265   -0.607036
