49

C     -4.116595    1.560867   -3.207454
O     -4.903233    0.885348   -2.231380
C     -4.399598   -0.047508   -1.311076
C     -5.288338   -0.629805   -0.397009
C     -4.823032   -1.560151    0.540222
C     -3.473578   -1.914283    0.570365
C     -2.568020   -1.347854   -0.339695
C     -3.038494   -0.410173   -1.278528
C     -1.101988   -1.731868   -0.258137
C     -0.340185   -0.981696    0.820325
C     -0.816323   -0.343359    2.101075
O      0.137945    0.679860    2.384256
C      0.837811    0.954554    1.167203
C      0.076048    0.206294    0.087462
C      0.556966   -0.437641   -1.191701
O     -0.404767   -1.455793   -1.476451
O      0.582832    0.505784   -2.226557
C      2.302799    0.567306    1.249568
C      3.205936    1.105513    0.317453
C      4.567029    0.743829    0.341205
C      5.019963   -0.161664    1.310224
C      4.123430   -0.702640    2.240016
C      2.774533   -0.345007    2.209677
O      6.366169   -0.521898    1.340937
O      5.493673    1.258365   -0.579118
C      5.170576    2.171682   -1.622726
O     -6.636234   -0.275730   -0.425423
H     -4.770055    2.238980   -3.793492
H     -3.654173    0.826472   -3.900325
H     -3.329546    2.167007   -2.710886
H     -5.507573   -2.007552    1.249610
H     -3.130861   -2.628152    1.309414
H     -2.346245    0.037119   -1.977223
H     -1.034152   -2.824467   -0.058666
H      0.538814   -1.621665    1.086981
H     -1.827482    0.106667    1.988221
H     -0.834393   -1.087103    2.925524
H      0.773435    2.047301    0.967550
H     -0.806011    0.845274   -0.172661
H      1.565713   -0.895334   -1.061907
H      0.937323    0.031735   -3.022930
H      2.836986    1.797805   -0.427729
H      4.471701   -1.405315    2.986356
H      2.103438   -0.786031    2.935112
H      6.725147   -1.174567    2.028017
H      4.770530    3.114949   -1.194466
H      6.089910    2.404787   -2.197866
H      4.426295    1.717551   -2.310691
H     -7.304125   -0.677796    0.222027
