41

C     -2.150796    1.559173   -0.551384
C     -2.225729    0.092040   -0.246504
C     -1.236460   -0.786475   -0.418261
C     -1.681026   -2.077686    0.063653
O     -0.970827   -3.117771    0.081593
C     -3.079838   -2.020189    0.546547
C     -3.457767   -0.538418    0.345051
O     -4.529307   -0.409004   -0.571225
C     -5.760851   -0.462943    0.114435
C      0.170997   -0.513282   -0.904244
C      1.049395    0.193852    0.181398
C      1.490532    1.460043   -0.487707
C      2.159346    2.458447    0.088005
C      0.944291    1.467603   -1.822664
O      1.112568    2.376263   -2.677876
O      0.170358    0.347758   -2.042025
C      2.223581   -0.682400    0.685381
C      3.306163   -1.029411   -0.362380
C      4.320776    0.069979   -0.541276
O      4.355320    0.696116   -1.589699
C      5.297151    0.408424    0.545427
H     -3.097206    2.059920   -0.257755
H     -2.002261    1.715781   -1.639403
H     -1.322617    2.028064    0.017842
H     -3.718099   -2.699930   -0.058538
H     -3.127545   -2.299932    1.620814
H     -3.655393   -0.045336    1.327708
H     -5.890813    0.431958    0.762070
H     -5.853935   -1.394421    0.716418
H     -6.581673   -0.460880   -0.631618
H      0.618162   -1.479956   -1.216210
H      0.426635    0.469018    1.062509
H      2.482082    2.378830    1.117840
H      2.391437    3.359760   -0.464399
H      2.692590   -0.190330    1.564795
H      1.791802   -1.634953    1.063064
H      2.850282   -1.281287   -1.342081
H      3.846897   -1.939193   -0.023393
H      5.133255    1.454164    0.879684
H      6.333041    0.306913    0.159607
H      5.175481   -0.270307    1.415649
