22

C      2.535752   -0.780277   -0.589690
C      1.306521    0.042998   -0.288465
C      0.065295   -0.581716   -0.037184
C     -1.094148    0.194897    0.249840
C     -0.988444    1.613993    0.229208
C      0.257393    2.209166    0.024315
C      1.396282    1.448754   -0.232488
O      2.602392    2.124592   -0.435365
O     -2.075553    2.480436    0.378456
C     -2.280935   -0.511164    0.571931
O     -3.330544    0.077454    0.939391
C     -2.292827   -1.903918    0.519765
C     -1.126230   -2.581093    0.188702
O     -0.010653   -1.911684   -0.062939
H      3.290502   -0.630315    0.210722
H      2.965174   -0.469668   -1.565390
H      2.321237   -1.866539   -0.654518
H      0.336541    3.289629    0.035368
H      3.479698    1.654653   -0.617451
H     -3.040577    2.221388    0.240239
H     -3.193824   -2.459559    0.750335
H     -1.123052   -3.662028    0.145217
