44

C      3.872690    0.237371   -1.321392
C      4.405193   -0.494128   -0.087201
C      3.271646   -1.152703    0.724346
C      2.336126   -0.142405    1.338813
O      2.727451    0.533810    2.328308
C      0.991388    0.111629    0.773141
C      0.624758    1.430869    0.429517
C     -0.628472    1.669269   -0.163845
C     -1.506255    0.615120   -0.410299
C     -1.153058   -0.693448   -0.067955
C      0.083764   -0.950673    0.547744
O      0.391429   -2.259550    0.934847
C      0.419141   -2.653090    2.301738
C     -2.098741   -1.779064   -0.388981
C     -3.308382   -1.509514   -0.887841
C     -3.816808   -0.086478   -1.027906
O     -2.741531    0.863845   -1.017760
C     -4.755678    0.224641    0.144632
C     -4.571918    0.056455   -2.354009
O      1.533581    2.475243    0.672962
C      1.302216    3.842556    0.350631
O      5.132815    0.405395    0.708488
H      3.265370   -0.450577   -1.947455
H      4.723466    0.608463   -1.931224
H      3.249614    1.106920   -1.026512
H      5.084891   -1.300556   -0.448963
H      2.719843   -1.851385    0.061144
H      3.716421   -1.764772    1.538473
H     -0.931517    2.668932   -0.443455
H     -0.575684   -2.479393    2.763632
H      1.190052   -2.084050    2.859932
H      0.659818   -3.733974    2.363407
H     -1.812804   -2.812737   -0.238970
H     -3.980371   -2.333309   -1.098815
H     -5.619132   -0.475539    0.156015
H     -5.140825    1.263841    0.064527
H     -4.209796    0.130831    1.108236
H     -3.894220   -0.170324   -3.205097
H     -4.945180    1.096133   -2.474803
H     -5.438526   -0.638780   -2.394044
H      2.187802    4.439616    0.649802
H      0.415897    4.220478    0.902620
H      1.150469    3.956257   -0.743535
H      5.673058   -0.141226    1.337183
