8

C     -0.923289   -0.232338   -0.006182
C      0.354780    0.533977   -0.091798
N      1.455081   -0.035663    0.094835
N      2.535335   -0.594564    0.277992
H     -1.456361   -0.167887   -0.977370
H     -0.734213   -1.301477    0.231567
H     -1.562269    0.206007    0.788225
H      0.330937    1.591944   -0.317270
