46

C      2.049404    2.554922   -1.069607
C      3.135228    1.535106   -1.012515
O      4.323316    1.896992   -0.795031
O      2.813903    0.183381   -1.151957
C      3.769514   -0.861939   -1.000544
C      3.071535   -2.226165   -1.083865
C      2.220782   -2.609996    0.155424
C      3.084891   -3.087582    1.346930
O      3.655091   -4.340247    1.072008
C      1.175424   -1.539804    0.502911
C      1.432965   -0.491544    1.418529
C      0.467737    0.490601    1.652008
C     -0.757141    0.480650    0.973210
C     -1.029529   -0.537357    0.039483
C     -0.055312   -1.537873   -0.197186
O     -0.299066   -2.531695   -1.142773
C     -2.334498   -0.530398   -0.684269
O     -2.600951   -1.450342   -1.504092
C     -3.330511    0.551519   -0.443888
C     -3.036941    1.564786    0.495442
C     -1.751240    1.548647    1.227703
O     -1.499749    2.452479    2.072246
C     -3.969986    2.590160    0.732677
C     -5.186918    2.617260    0.046799
C     -5.481054    1.620567   -0.881293
C     -4.567292    0.589227   -1.134250
O     -4.894514   -0.391392   -2.071325
O     -6.112109    3.632434    0.280765
O      2.653608   -0.399304    2.084676
H      1.132715    2.110950   -1.512087
H      1.819161    2.907425   -0.042631
H      2.370486    3.416232   -1.692138
H      4.514332   -0.788518   -1.822254
H      4.308659   -0.754472   -0.036718
H      3.843780   -3.008427   -1.250712
H      2.420571   -2.231389   -1.985609
H      1.655674   -3.520978   -0.141641
H      2.463906   -3.150959    2.270443
H      3.915844   -2.383071    1.545873
H      2.948271   -5.018909    1.232260
H      0.689975    1.280146    2.359322
H     -3.756082    3.372440    1.450461
H     -6.426051    1.647983   -1.409551
H     -5.775007   -0.378093   -2.572976
H     -5.929955    4.372468    0.948675
H      2.857139    0.354079    2.731069
