49

C      5.354358    0.962548   -0.980541
C      4.759264   -0.122118   -0.073682
C      5.192651    0.076428    1.384244
C      3.243830   -0.175911   -0.196252
C      2.487050    0.891179    0.143459
C      0.978727    0.828267    0.143456
C      0.395780    0.647078    1.569686
C     -1.163273    0.595832    1.564974
C     -1.743074   -0.273540    0.390613
C     -0.995373    0.060733   -0.946507
C      0.438074   -0.285471   -0.691439
C      1.134845   -1.371971   -1.030107
C      2.575003   -1.398729   -0.728482
O      3.232539   -2.448416   -0.958343
C     -1.628651   -0.622364   -2.169438
C     -3.113808   -0.247967   -2.352490
C     -3.798334    0.321750   -1.089713
C     -3.327765   -0.320247    0.245345
C     -4.060128    0.412223    1.397343
C     -3.809316   -1.794191    0.276277
C     -0.771502    1.546221   -1.123803
O     -1.488664    2.328180   -1.801435
O      0.383944    1.961690   -0.471435
H      5.025129    0.803629   -2.029745
H      5.039939    1.976616   -0.654762
H      6.463910    0.913142   -0.953876
H      5.194132   -1.089016   -0.406830
H      4.748482   -0.715896    2.024126
H      6.298592    0.007825    1.464458
H      4.873322    1.068643    1.767468
H      2.950501    1.792778    0.523002
H      0.787202   -0.297116    2.010129
H      0.729053    1.485329    2.219391
H     -1.539820    1.637594    1.484759
H     -1.497460    0.187635    2.542279
H     -1.425976   -1.308996    0.661361
H      0.675376   -2.192666   -1.563915
H     -1.562233   -1.723960   -2.040660
H     -1.060104   -0.365635   -3.090441
H     -3.670655   -1.147813   -2.694253
H     -3.201922    0.505033   -3.165699
H     -3.630008    1.417247   -1.045910
H     -4.898336    0.199040   -1.206298
H     -5.162247    0.326570    1.277406
H     -3.817090    1.495262    1.406145
H     -3.799903   -0.029239    2.382469
H     -3.319374   -2.395834   -0.516945
H     -4.909067   -1.859263    0.127234
H     -3.567621   -2.262113    1.255274
