45

C      4.534963   -0.371847    1.148055
C      3.622635    0.315946    0.191181
O      3.935700    1.448387   -0.263639
O      2.453482   -0.329274   -0.225322
C      1.489729    0.241797   -1.115425
C      0.617485   -0.900104   -1.662304
C     -0.092738   -1.849573   -0.616308
C     -0.353233   -1.244028    0.833419
C     -1.256476   -2.120674    1.643920
C     -2.376407   -1.512939    2.013657
C     -2.440094   -0.082877    1.586076
C     -1.001452    0.157912    1.033602
C     -0.825180    1.094627   -0.159740
C      0.686427    1.378009   -0.406932
C      0.634659    2.732997   -1.055754
C      1.610528    3.375175   -1.698369
C     -0.625330    3.318965   -0.636029
O     -0.969197    4.518943   -0.801643
O     -1.400724    2.383483    0.022359
C     -3.597116    0.105392    0.586156
O     -2.673638    0.709588    2.724617
C     -1.399197   -2.361031   -1.281990
O      0.749595   -2.964065   -0.400460
H      5.337369   -0.892020    0.585024
H      3.966321   -1.116110    1.744200
H      4.990892    0.368003    1.839303
H      2.031479    0.661845   -1.990138
H     -0.101723   -0.469695   -2.391945
H      1.274433   -1.519437   -2.312489
H      0.627879   -1.229567    1.359278
H     -1.046298   -3.161177    1.870564
H     -3.162378   -2.013154    2.570976
H     -0.442199    0.631721    1.875754
H     -1.326613    0.670102   -1.049406
H      1.171504    1.565264    0.578169
H      2.561338    2.903020   -1.894198
H      1.464973    4.391711   -2.040527
H     -4.564743   -0.090399    1.096237
H     -3.526716   -0.591396   -0.265744
H     -3.628153    1.145145    0.202295
H     -2.634843    1.659040    2.435747
H     -2.065519   -1.522115   -1.547156
H     -1.164869   -2.886732   -2.232854
H     -1.943835   -3.083713   -0.640679
H      0.857276   -3.465146   -1.251537
