44

C      4.040737    1.823524    1.260191
C      3.751822    0.756517    0.208543
C      4.750148   -0.404441    0.306088
C      4.654308   -1.383780   -0.876855
C      3.341323   -2.190079   -0.914007
C      2.227440   -1.461863   -1.624392
O      2.442397   -0.973671   -2.767241
C      0.876482   -1.332068   -1.024849
C      0.241477   -2.440091   -0.433087
C     -1.026106   -2.296522    0.139045
C     -1.689857   -1.060794    0.117400
C     -1.073046    0.053405   -0.484223
C      0.207933   -0.091207   -1.064216
O      0.825016    0.997713   -1.676312
C     -1.774907    1.364709   -0.465480
O     -1.116811    2.423575   -0.648301
C     -3.220901    1.435074   -0.115282
C     -3.807208    0.327677    0.541580
C     -3.035666   -0.924875    0.719614
O     -3.533752   -1.884954    1.370132
C     -5.127081    0.414283    1.017269
C     -5.873150    1.580394    0.833034
C     -5.316984    2.656589    0.144941
C     -4.015634    2.588013   -0.362125
O     -3.573070    3.667169   -1.130798
O     -7.175871    1.674724    1.318119
O      0.856433   -3.692628   -0.436358
H      5.050655    2.258392    1.102399
H      3.288513    2.636512    1.180562
H      3.984274    1.385411    2.279528
H      2.723387    0.377317    0.377186
H      3.804264    1.221331   -0.799980
H      5.783244    0.007548    0.319937
H      4.595889   -0.952192    1.261611
H      4.825476   -0.846225   -1.834886
H      5.491140   -2.108346   -0.771167
H      3.522259   -3.141070   -1.459636
H      3.043645   -2.454953    0.123444
H     -1.498366   -3.161026    0.589231
H     -5.581256   -0.422777    1.533023
H     -5.912229    3.545463   -0.024638
H     -2.778648    3.624135   -1.753343
H     -7.612138    0.909262    1.818785
H      0.414419   -4.505176   -0.022563
