50

C      2.860432   -1.707946   -4.792795
O      1.963084   -0.974813   -3.965512
C      1.125120   -1.550686   -2.998020
C      0.299868   -0.707260   -2.241812
C     -0.575675   -1.260572   -1.286837
C     -0.580669   -2.634754   -1.024600
C     -1.517524   -3.208893    0.014261
C     -1.202101   -2.717999    1.443689
C     -1.930028   -1.443677    1.806482
O     -3.149953   -1.408470    1.725818
C     -1.157364   -0.230759    2.276885
C     -2.059560    0.886047    2.843802
C     -1.253385    2.123049    3.307308
C     -1.257784    3.290195    2.296779
C     -0.714282    2.879022    0.947373
C      0.647334    2.524429    0.764886
C      1.034469    1.838414   -0.414497
C      0.070555    1.565571   -1.396307
O      0.376049    0.681578   -2.432813
C     -1.223926    2.069206   -1.282931
C     -1.621668    2.699032   -0.109241
O      2.336736    1.360568   -0.654786
C      3.444037    1.434971    0.235607
O      1.598490    2.810566    1.746722
C      0.268559   -3.470708   -1.765401
C      1.103341   -2.937741   -2.752659
H      3.608764   -2.239024   -4.167378
H      2.297843   -2.434373   -5.416477
H      3.393790   -1.002884   -5.462659
H     -1.260019   -0.622683   -0.747980
H     -2.566693   -2.971736   -0.266076
H     -1.442082   -4.318475    0.009020
H     -1.524267   -3.500201    2.164548
H     -0.104295   -2.593188    1.572450
H     -0.447074   -0.553021    3.068730
H     -0.563318    0.152506    1.426470
H     -2.823731    1.181806    2.092232
H     -2.605612    0.473559    3.720770
H     -0.210181    1.837969    3.561674
H     -1.707351    2.502253    4.248816
H     -2.298980    3.669728    2.200425
H     -0.670058    4.140359    2.700917
H     -1.953595    1.866438   -2.056568
H     -2.661657    2.980064    0.002282
H      3.718614    2.494569    0.420323
H      4.313570    0.929436   -0.231922
H      3.208546    0.912039    1.186444
H      1.400642    3.338455    2.585582
H      0.277219   -4.539308   -1.590159
H      1.735770   -3.612658   -3.312868
