30

C     -3.734097   -1.738712   -0.319110
C     -2.460199   -0.957658   -0.124683
C     -1.253034   -1.489259   -0.596937
C     -0.049880   -0.799829   -0.429296
C     -0.027516    0.472346    0.207369
C     -1.243751    0.974947    0.723935
C     -2.452085    0.274544    0.565166
C     -3.723868    0.861941    1.122448
N      1.168900    1.155298    0.343198
C      2.332944    0.566717   -0.072891
N      3.537658    1.183837    0.055554
C      4.683233    0.595695   -0.381768
O      5.780372    1.197272   -0.240567
N      4.653399   -0.635053   -0.971270
C      3.487276   -1.316620   -1.147079
O      3.496253   -2.449108   -1.701238
C      2.289010   -0.753954   -0.712176
N      1.098887   -1.372622   -0.870099
C      1.242297    2.489051    0.888519
O      0.453809    3.391584    0.499538
H     -3.583659   -2.605385   -0.997578
H     -4.091355   -2.120495    0.660064
H     -4.515118   -1.091337   -0.769650
H     -1.243160   -2.452076   -1.095026
H     -1.265350    1.899348    1.281607
H     -4.233772    0.120357    1.772299
H     -3.526801    1.767303    1.735015
H     -4.399584    1.148265    0.289656
H      5.548792   -1.064492   -1.299465
H      2.030402    2.748094    1.584467
