14

C     -1.509467   -1.669262   -0.356823
N     -0.273079   -2.073427    0.070041
C      0.658052   -1.117137    0.295727
N      1.919910   -1.282144    0.712586
N      2.407853   -0.043221    0.774802
N      1.521132    0.887152    0.419993
C      0.412353    0.196446    0.117195
C     -0.835396    0.624005   -0.315088
N     -1.781864   -0.335836   -0.545420
N     -1.132697    2.005664   -0.515333
H     -2.278092   -2.405562   -0.547155
H      3.384306    0.176180    1.071010
H     -0.411987    2.740852   -0.340270
H     -2.081024    2.296290   -0.841267
