50

C      6.162280    1.166649   -0.859979
C      5.457693    0.758729    0.450437
C      5.006051    2.022569    1.201435
C      4.255031   -0.191428    0.183934
C      3.142607    0.393560   -0.705745
C      2.026969   -0.605646   -0.864541
C      0.950146   -0.614089    0.037491
C     -0.059549   -1.579696   -0.071994
C      0.024830   -2.563812   -1.067419
C      1.094067   -2.560932   -1.966975
C      2.092581   -1.585976   -1.866940
C     -1.166623   -1.590064    0.897413
O     -0.954957   -2.074397    2.041151
N     -2.461088   -1.036741    0.572678
C     -2.828616   -0.810312   -0.839464
C     -4.333427   -0.532891   -1.027887
C     -4.786848    0.490892   -0.026703
C     -5.689398    1.505613   -0.380673
C     -6.116014    2.427829    0.580088
C     -5.658063    2.332073    1.897621
C     -4.773730    1.312440    2.258663
C     -4.327967    0.392574    1.296428
C     -3.402896   -0.736307    1.668547
O     -5.071843   -1.713446   -0.831905
O      6.381786    0.092565    1.278909
H      7.113550    1.695062   -0.631378
H      6.400616    0.269736   -1.470620
H      5.528531    1.850599   -1.464288
H      4.386613    2.683223    0.558398
H      4.421284    1.749327    2.105046
H      5.893688    2.606796    1.529695
H      4.633078   -1.121923   -0.294067
H      3.813217   -0.487950    1.160995
H      3.546293    0.651737   -1.708164
H      2.736147    1.324464   -0.257646
H      0.902288    0.124559    0.827556
H     -0.731719   -3.336452   -1.142318
H      1.156512   -3.323484   -2.734559
H      2.925248   -1.605747   -2.559358
H     -2.565645   -1.701263   -1.445226
H     -2.245882    0.050823   -1.229210
H     -4.499670   -0.151516   -2.064912
H     -6.060770    1.583066   -1.396672
H     -6.806547    3.214021    0.304601
H     -5.993666    3.045638    2.639472
H     -4.436072    1.242730    3.283730
H     -4.005641   -1.642599    1.889762
H     -2.841928   -0.459324    2.587843
H     -4.958626   -2.263805   -1.651264
H      6.726077   -0.697474    0.785807
