30

C      3.550374    1.126973   -0.980478
C      3.333423    0.090735    0.122374
C      1.925053    0.155435    0.735021
C      0.842399   -0.390644   -0.215012
C     -0.580442   -0.340206    0.400247
C     -0.769224   -1.453813    1.449816
C     -1.658859   -0.414447   -0.725139
C     -3.096728   -0.157690   -0.231760
C     -3.252430    1.196170    0.390811
O     -3.318395    2.222457   -0.337405
O     -3.293534    1.321999    1.775825
O     -1.622759   -1.671218   -1.354832
H      3.298055    2.144702   -0.614040
H      4.617096    1.118316   -1.288716
H      2.934095    0.890529   -1.872039
H      3.531422   -0.927418   -0.277721
H      4.074878    0.283779    0.927944
H      1.688001    1.204044    1.019457
H      1.942051   -0.448386    1.665212
H      1.092076   -1.434739   -0.506319
H      0.854630    0.225851   -1.138318
H     -0.688299    0.638671    0.916421
H     -0.691807   -2.457609    0.980912
H     -0.007525   -1.379410    2.250877
H     -1.754346   -1.362862    1.949338
H     -1.442072    0.382685   -1.477091
H     -3.787963   -0.223064   -1.100228
H     -3.417397   -0.942036    0.484489
H     -3.384167    2.231601    2.212224
H     -0.917606   -1.630407   -2.052395
