47

C      6.251053   -0.348170   -0.924581
C      4.782874   -0.373964   -0.618374
C      4.147743   -1.586826   -0.303136
C      2.785082   -1.614436    0.018496
C      2.055107   -0.415649    0.045346
C      2.688673    0.797166   -0.262468
C      4.047871    0.821249   -0.583784
O      1.938812    1.977757   -0.247952
C      0.569867    1.961814    0.053395
C     -0.037171    0.799702    0.387434
O      0.695491   -0.397372    0.382844
C     -1.479267    0.826543    0.860013
C     -2.344455   -0.397751    0.491872
C     -2.147867   -1.878465    0.556368
C     -3.124574   -2.417562   -0.194186
C     -3.767723   -1.352117   -0.987183
O     -4.786696   -1.485030   -1.714243
C     -2.893108   -0.151438   -0.907425
C     -3.298034    1.270816   -0.735678
O     -4.215121    1.850675   -1.374608
C     -2.267146    1.915883    0.120189
C     -1.693275    3.092175   -0.189676
C     -0.227950    3.204782   -0.044848
O      0.339950    4.326155   -0.120576
O     -2.412195    4.147472   -0.751708
C     -1.842196   -0.250455   -2.047314
C     -1.494807   -2.603602    1.687494
C     -1.493026    1.095190    2.379572
O      2.178912   -2.836396    0.303628
H      6.822333   -0.219109    0.018296
H      6.566187   -1.294973   -1.412703
H      6.493507    0.489516   -1.612668
H      4.710023   -2.512813   -0.310743
H      4.526521    1.766559   -0.808616
H     -3.211865   -0.291484    1.206116
H     -3.419637   -3.458816   -0.179666
H     -3.421842    4.139288   -0.821734
H     -1.133046    0.603095   -2.049620
H     -1.247042   -1.186260   -1.974804
H     -2.360140   -0.244182   -3.030356
H     -1.208448   -3.628247    1.369734
H     -0.584798   -2.061590    2.013802
H     -2.198633   -2.667830    2.543379
H     -2.528641    1.244568    2.754441
H     -1.039420    0.240445    2.924439
H     -0.913782    2.012262    2.621808
H      1.191898   -2.908573    0.513996
