44

C     -0.964911   -1.310006    1.144600
N     -1.333380   -0.051262    0.490401
C     -1.394625    0.030056   -0.974403
C     -0.017683   -0.036843   -1.562828
O      0.680183    1.011869   -1.622569
N      0.511611   -1.287327   -2.026105
C      1.860041   -1.405181   -2.590170
C      2.374712   -2.854891   -2.488624
C      2.486781   -3.358225   -1.040738
C      3.550645   -2.628308   -0.274444
O      4.761062   -2.935494   -0.440491
N      3.204126   -1.572803    0.623601
C      1.849906   -0.970070   -4.026896
O      0.924168   -1.342335   -4.799144
O      2.893653   -0.192978   -4.520464
C     -1.927792    0.986214    1.288329
C     -1.166518    1.731253    2.221655
C     -1.819098    2.667808    3.043710
C     -3.203980    2.888780    2.937419
C     -3.938218    2.156160    1.992749
C     -3.306380    1.215194    1.180851
N     -3.862629    3.850070    3.781883
O     -3.212502    4.528967    4.604510
O     -5.223703    4.038469    3.695525
N      0.259153    1.566719    2.338083
O      0.945986    1.233232    1.350782
O      0.902881    1.916071    3.503301
H     -0.655188   -2.072890    0.401871
H     -0.125557   -1.144905    1.850220
H     -1.836138   -1.708602    1.706951
H     -1.868244    0.984800   -1.294551
H     -2.026392   -0.795665   -1.368259
H     -0.117888   -2.122071   -2.036835
H      2.555664   -0.744035   -2.028738
H      1.685270   -3.529444   -3.042059
H      3.372112   -2.930779   -2.976503
H      2.743141   -4.439762   -1.059293
H      1.510173   -3.267632   -0.520273
H      3.947701   -1.072243    1.158350
H      2.209415   -1.281870    0.746290
H      2.915046    0.089634   -5.493588
H     -1.241296    3.237974    3.759759
H     -5.005152    2.303097    1.887261
H     -3.896160    0.643936    0.478875
