27

C      3.417426    0.491972   -0.244342
C      2.693589   -0.847613   -0.087275
C      3.446350   -1.749768    0.850847
O      3.691962   -1.383696    2.031374
O      3.866834   -3.002394    0.421274
N      1.328495   -0.631003    0.401714
C      0.263807   -0.206535   -0.463287
O      0.476523   -0.046625   -1.697056
C     -1.111800    0.062194    0.101083
C     -2.191543   -0.775804   -0.568716
C     -3.449661    0.062229   -0.434684
C     -2.973744    1.467400   -0.068826
N     -1.508224    1.462489   -0.068029
H      3.446781    1.035864    0.724200
H      4.457251    0.326680   -0.599505
H      2.891836    1.125173   -0.989956
H      2.653087   -1.346417   -1.080953
H      1.129804   -0.736974    1.422803
H     -1.117230   -0.182626    1.189191
H     -1.969754   -0.930666   -1.648212
H     -2.303884   -1.764082   -0.071513
H     -4.019563    0.070497   -1.389418
H     -4.098687   -0.345090    0.371731
H     -3.362436    2.213475   -0.797773
H     -3.354483    1.739793    0.941787
H     -1.136503    2.048024    0.716660
H     -1.166232    1.843503   -0.982569
