26

C     -0.030137   -0.430008   -0.219117
C      1.199947    0.328360    0.293514
C      2.495924   -0.330097   -0.190927
N      3.665195    0.397522    0.301312
C      4.995782   -0.020500   -0.014637
O      5.200207   -1.035800   -0.731877
C     -1.327639    0.232449    0.266453
C     -2.574887   -0.532752   -0.214102
C     -3.823534    0.017765    0.433182
O     -4.543070   -0.737059    1.139103
O     -4.202325    1.347679    0.261644
N     -2.682627   -0.486162   -1.674660
H      0.007138   -1.479668    0.147201
H     -0.013396   -0.442995   -1.330963
H      1.191128    0.339744    1.405762
H      1.166230    1.378390   -0.072038
H      2.513898   -0.339031   -1.302723
H      2.538340   -1.378870    0.176172
H      3.547256    1.246279    0.900005
H      5.838853    0.540667    0.365953
H     -1.362341    1.282304   -0.098551
H     -1.323484    0.254531    1.379127
H     -2.464384   -1.597682    0.092661
H     -3.655527    1.990112   -0.297895
H     -2.839123    0.499590   -1.987253
H     -3.517424   -1.044770   -1.967541
