24

C     -3.930076   -0.352025    0.112313
C     -3.696315    1.026137    0.034825
C     -2.386637    1.515717   -0.022032
C     -1.308711    0.623969   -0.001275
C     -1.543981   -0.763592    0.076741
C     -2.855414   -1.248088    0.133369
N     -0.488639   -1.618176    0.096106
C      0.790440   -1.159788    0.041614
C      1.856791   -2.060182    0.063093
C      3.167447   -1.588286    0.007153
C      3.421192   -0.216402   -0.070487
C      2.364328    0.716308   -0.093890
C      1.034127    0.232821   -0.036862
N     -0.030828    1.081662   -0.055689
C      2.678170    2.168797   -0.177174
O      3.875520    2.558296   -0.226112
O      1.668928    3.124083   -0.202871
H     -4.944978   -0.725524    0.156054
H     -4.531015    1.714947    0.018835
H     -2.213099    2.583031   -0.081856
H     -3.043695   -2.312867    0.193425
H      1.672183   -3.125729    0.123096
H      3.992560   -2.288720    0.023974
H      4.451702    0.113611   -0.112350
