24

C      2.391821    0.370480   -0.468097
C      1.112371    0.401334    0.386867
C      0.373966   -0.970918    0.392417
C     -1.125307   -0.758271    0.658779
C     -1.732168    0.194956   -0.403950
C     -0.657437    1.142617   -0.989084
O      0.291719    1.501921    0.001495
O     -1.261820    2.299058   -1.506125
O     -2.298288   -0.548642   -1.452835
O     -1.295172   -0.217945    1.945729
O      0.930157   -1.806331    1.375808
O      3.292980   -0.589425    0.015117
H      2.869447    1.376813   -0.466698
H      2.143033    0.123320   -1.521213
H      1.427823    0.611225    1.433044
H      0.484449   -1.453877   -0.608233
H     -1.632038   -1.751354    0.609291
H     -2.528609    0.811168    0.077602
H     -0.144195    0.640785   -1.840883
H     -1.564891    2.843144   -0.732599
H     -3.161808   -0.907161   -1.118240
H     -2.241667   -0.376175    2.200865
H      0.622727   -2.729108    1.176165
H      3.702908   -0.207613    0.834781
