19

C     -0.426708   -1.442447    0.689766
C      0.945103   -1.000157    0.154230
C      1.407982    0.288510    0.782495
O      1.620067    0.323292    2.024406
C      1.626522    1.507503   -0.013871
O      1.479304    1.493570   -1.265300
O      2.005763    2.686304    0.621128
C     -1.572589   -0.495488    0.298667
C     -1.829179   -0.502447   -1.181095
O     -2.256553   -1.547737   -1.738346
O     -1.602594    0.636079   -1.949196
H     -0.382603   -1.514121    1.798575
H     -0.648766   -2.463846    0.310148
H      1.689078   -1.789034    0.396873
H      0.910702   -0.923593   -0.953115
H      2.162279    3.535238    0.090927
H     -1.353225    0.535636    0.648680
H     -2.499246   -0.825362    0.815511
H     -1.275337    1.498100   -1.530484
