37

C     -0.157218   -4.663661    0.116795
C     -1.468075   -4.654261    0.599094
C     -2.149770   -3.445000    0.752353
C     -1.524102   -2.239103    0.416379
C     -0.204093   -2.239388   -0.089682
C      0.478067   -3.465170   -0.223462
C      0.377658   -0.995080   -0.412970
N     -0.344335    0.141999   -0.221085
C     -1.608553    0.124237    0.278335
N     -2.186254   -1.066697    0.586901
C     -2.348818    1.393238    0.481493
C     -3.671758    1.385413    0.958328
C     -4.348644    2.593323    1.143869
N     -3.731948    3.771587    0.865873
C     -2.454700    3.814425    0.404729
C     -1.740447    2.630789    0.204267
N      1.691268   -0.902811   -0.992431
C      2.538326    0.250963   -0.847526
C      2.490221    1.055159    0.307349
C      3.333451    2.164231    0.430792
C      4.239362    2.472020   -0.587744
C      4.308546    1.667360   -1.727706
C      3.466784    0.558178   -1.855122
F      3.278016    2.936594    1.543749
H      0.370609   -5.602749    0.011017
H     -1.953686   -5.585224    0.861758
H     -3.162439   -3.446439    1.136586
H      1.500201   -3.511280   -0.571877
H     -4.180921    0.457348    1.185450
H     -5.366684    2.593337    1.509907
H     -1.991703    4.769100    0.193491
H     -0.722827    2.686829   -0.161665
H      1.989159   -1.640988   -1.668666
H      1.816291    0.816781    1.119704
H      4.892896    3.329488   -0.491511
H      5.015477    1.902453   -2.512877
H      3.530643   -0.056999   -2.743895
