26

C      1.463148    1.104452   -0.483363
C      2.860695    1.084440   -0.512579
C      3.560441   -0.048165   -0.076966
C      2.849799   -1.161686    0.389140
C      1.452265   -1.143879    0.420357
C      0.742499   -0.010036   -0.016040
C     -0.742497    0.010054    0.016060
C     -1.473309    0.581422   -1.041892
C     -2.870843    0.599215   -1.010691
C     -3.560441    0.048161    0.076962
C     -2.839651   -0.521963    1.134136
C     -1.442102   -0.541968    1.104929
N     -4.990009    0.067487    0.107854
N      4.990008   -0.067508   -0.107875
H      0.946838    1.998539   -0.809556
H      3.398080    1.953210   -0.871646
H      3.378508   -2.044881    0.725153
H      0.926543   -2.023867    0.769078
H     -0.964903    0.998593   -1.902044
H     -3.416121    1.039572   -1.836058
H     -3.360469   -0.947904    1.982543
H     -0.908476   -0.973231    1.942559
H     -5.536043    0.490445   -0.675623
H     -5.512923   -0.341024    0.914428
H      5.520445   -0.907326    0.214962
H      5.528517    0.757846   -0.453827
