48

C      6.409442   -0.356435   -0.145902
C      5.536824   -1.476199   -0.730474
N      4.084028   -1.300482   -0.510799
C      3.704200   -1.330649    0.914433
C      2.181726   -1.414763    1.036814
N      1.559629   -0.341022    0.253471
C      2.006322   -0.145596   -1.130674
C      3.535203   -0.106804   -1.181953
C      0.315027    0.228753    0.695090
C      0.258829    0.949901    1.892908
C     -0.941672    1.518542    2.314956
C     -2.115099    1.370204    1.551000
C     -2.082764    0.618030    0.348208
C     -0.847080    0.074398   -0.074312
N     -3.240248    0.442867   -0.381706
C     -4.390156    1.090449   -0.019877
C     -4.465228    1.855601    1.151226
C     -3.318044    1.977133    1.952436
O     -3.360748    2.653948    3.017816
C     -5.747470    2.503745    1.530959
O     -6.036917    2.667311    2.745974
O     -6.651520    2.944061    0.565297
C     -3.262046   -0.360001   -1.620024
C     -3.017612   -1.850160   -1.400005
C     -4.412240   -1.360761   -1.729562
F      1.380147    1.138246    2.633637
H      6.296052   -0.291650    0.955186
H      7.475389   -0.579911   -0.361919
H      6.170800    0.622441   -0.608808
H      5.735979   -1.550021   -1.821803
H      5.859112   -2.445172   -0.290785
H      4.054123   -0.414930    1.440446
H      4.149252   -2.219060    1.413885
H      1.897231   -1.344456    2.108771
H      1.831437   -2.396735    0.651127
H      1.633237   -0.982349   -1.760415
H      1.606832    0.809920   -1.536336
H      3.853154   -0.082488   -2.247368
H      3.884933    0.825560   -0.685912
H     -0.945801    2.087549    3.236752
H     -0.768591   -0.473729   -1.001852
H     -5.277085    0.981711   -0.632237
H     -6.437061    2.925440   -0.423787
H     -2.874830    0.089224   -2.559120
H     -2.502769   -2.357696   -2.242732
H     -2.888738   -2.165711   -0.342267
H     -4.728703   -1.592635   -2.768191
H     -5.106487   -1.435620   -0.865662
