23

C     -1.477847    0.169688    1.025363
C     -0.839859   -1.188496    0.680636
C      0.354137   -1.098123   -0.307316
C      0.048109   -0.208808   -1.534574
C     -0.667449    1.052604   -1.145945
O     -0.342593    2.124122   -1.634260
C     -1.848443    0.964357   -0.227561
C      1.713237   -0.783556    0.368071
C      1.822496    0.584761    0.977631
O      1.641924    0.735486    2.214719
O      2.160356    1.688469    0.199927
H     -2.398185   -0.007219    1.622774
H     -0.797821    0.772239    1.657568
H     -0.520816   -1.691806    1.618868
H     -1.625918   -1.829175    0.222839
H      0.483047   -2.128186   -0.710813
H     -0.614785   -0.769977   -2.228532
H      0.981211    0.023602   -2.092368
H     -2.682677    0.457651   -0.759041
H     -2.188263    1.981171    0.067174
H      2.525311   -0.898324   -0.382206
H      1.910110   -1.545128    1.154321
H      2.364717    1.594649   -0.787276
