50

C     -5.013398    0.598297    2.484538
C     -4.654734   -0.555044    1.540681
C     -5.235834   -0.378827    0.103285
C     -4.376531   -1.179477   -0.887254
C     -2.896220   -0.722033   -0.817862
C     -2.536652   -0.136150    0.578056
O     -3.254751   -0.821394    1.587137
O     -1.153698   -0.309411    0.835248
C     -0.410808    0.817878    0.412470
C      1.082901    0.478542    0.457568
C      1.956355    1.729806    0.108282
C      2.796290    1.508025   -1.174111
C      3.537639    0.143571   -1.157065
C      2.693898   -0.945159   -0.435441
O      1.319229   -0.600488   -0.433365
O      2.857501   -2.188621   -1.067675
N      4.861574    0.264883   -0.527956
C      5.859104   -0.761040   -0.629659
O      5.682640   -1.750661   -1.390772
C      7.128731   -0.646111    0.151107
O      1.945813    1.540614   -2.295301
O      2.780698    2.091355    1.189798
O     -2.045591   -1.786910   -1.165414
O     -4.879599   -1.025614   -2.188960
O     -5.264432    0.980262   -0.267817
H     -4.532408    1.545075    2.161297
H     -6.115121    0.742220    2.510109
H     -4.664728    0.362273    3.513395
H     -5.147570   -1.458097    1.961880
H     -6.275711   -0.788026    0.096733
H     -4.453510   -2.252192   -0.593626
H     -2.740507    0.086982   -1.563528
H     -2.819320    0.946373    0.609372
H     -0.609154    1.670188    1.101711
H     -0.676397    1.114254   -0.629750
H      1.293026    0.146259    1.501420
H      1.300491    2.608741   -0.082308
H      3.542725    2.331623   -1.272036
H      3.695987   -0.152469   -2.219947
H      3.057880   -1.070614    0.611969
H      2.394505   -2.134176   -1.945534
H      5.112160    1.130576    0.000430
H      7.701841    0.239102   -0.198322
H      7.751286   -1.555307    0.019177
H      6.892458   -0.526754    1.228923
H      1.711897    2.491886   -2.459199
H      3.302120    1.293925    1.462263
H     -2.120363   -2.472650   -0.450095
H     -4.433910   -1.716013   -2.747747
H     -5.947802    1.070533   -0.983892
