24

C      1.411125   -1.231900   -0.493433
C      0.095294   -0.520052   -0.875085
C     -0.829655   -0.193296    0.324909
C     -2.119400    0.536264   -0.138527
C     -1.815008    1.872331   -0.764208
O     -2.125536    2.095047   -1.964071
O     -1.189781    2.867593   -0.022547
O     -3.016852    0.712753    0.930490
C     -1.194450   -1.453109    1.067693
O     -0.863636   -1.593880    2.274547
O     -1.895827   -2.467889    0.426927
C      2.339200   -0.411127    0.416430
C      2.754935    0.879347   -0.220027
O      3.646723    0.888744   -1.108839
O      2.132033    2.066874    0.142643
H      1.958872   -1.479770   -1.429034
H      1.183126   -2.198324    0.004845
H     -0.453690   -1.171458   -1.590309
H      0.344231    0.412258   -1.424961
H     -0.289354    0.486462    1.019325
H     -2.628780   -0.098762   -0.897483
H     -2.546803    1.226954    1.638699
H      1.853369   -0.213076    1.394241
H      3.249866   -1.011986    0.628298
