43

C     -2.914124    1.958719    1.243793
N     -3.292710    0.553892    1.531379
C     -3.938030    0.518875    2.868426
C     -4.283037    0.089414    0.532159
C     -2.085257   -0.331275    1.578125
C     -1.339802   -0.547211    0.221685
C     -1.710260   -1.902111   -0.410191
C     -1.099898   -2.048550   -1.770481
O     -1.790807   -1.827306   -2.803333
O      0.239413   -2.396820   -1.897996
O      0.072378   -0.543464    0.446410
C      0.829150    0.616499    0.640142
O      0.292462    1.755890    0.585834
C      2.304336    0.496941    0.852006
C      3.031068    0.432966   -0.494976
C      4.539634    0.227572   -0.296388
C      5.309608    0.244133   -1.624964
C      4.942414   -0.920199   -2.499663
O      5.462390   -2.049084   -2.294800
O      3.991838   -0.778391   -3.509219
H     -3.793791    2.634467    1.329511
H     -2.137566    2.319663    1.956526
H     -2.523914    2.081662    0.212386
H     -4.285767   -0.511145    3.116751
H     -4.827347    1.188437    2.909438
H     -3.231524    0.842496    3.665105
H     -4.563317   -0.972107    0.711012
H     -3.894929    0.184715   -0.503313
H     -5.213473    0.696706    0.583640
H     -1.360728    0.086085    2.313989
H     -2.357745   -1.327384    2.000590
H     -1.581631    0.248113   -0.511400
H     -1.342388   -2.728135    0.237083
H     -2.809810   -2.014657   -0.493267
H      2.669550    1.366553    1.443244
H      2.506987   -0.430149    1.432464
H      2.854176    1.377270   -1.054912
H      2.618227   -0.411226   -1.090997
H      4.723539   -0.735835    0.228866
H      4.935364    1.043647    0.346524
H      6.399213    0.201688   -1.409089
H      5.118774    1.196736   -2.164228
H      3.537335    0.111913   -3.681070
