35

C     -6.316530   -0.024565    0.007141
O     -5.182130   -0.881013   -0.077299
C     -3.851254   -0.441155   -0.018649
C     -2.832196   -1.393330   -0.114931
C     -1.483835   -1.011974   -0.062072
C     -1.141264    0.349868    0.098727
C     -2.170598    1.303208    0.184534
C     -3.510971    0.914386    0.130532
C      0.303928    0.815426    0.140548
C      0.966079    0.715993   -1.245033
O      2.391613    0.841869   -1.151937
C      3.072308    0.428677   -0.157993
C      4.470356    0.450837   -0.235977
C      5.247241   -0.065518    0.809873
C      4.624374   -0.595658    1.943476
C      3.231022   -0.590238    2.050491
C      2.444809   -0.053987    1.016620
C      1.114527    0.052188    1.156248
O      6.637981   -0.061782    0.729292
O     -0.488459   -1.983671   -0.168957
H     -6.306811    0.705598   -0.829515
H     -6.320230    0.509355    0.980872
H     -7.238884   -0.636331   -0.066040
H     -3.091387   -2.438024   -0.234083
H     -1.937181    2.355173    0.293496
H     -4.274570    1.676666    0.203554
H      0.346150    1.883396    0.450656
H      0.737314   -0.265157   -1.713473
H      0.571464    1.510701   -1.913218
H      4.953650    0.842258   -1.123036
H      5.222621   -0.999088    2.750613
H      2.772692   -0.978451    2.952898
H      0.629801   -0.283866    2.067115
H      7.120748    0.313282   -0.078889
H     -0.712378   -2.965073   -0.284651
