26

C      2.121136    0.752295    0.784055
C      1.751406   -0.015072   -0.497666
C      0.724372   -1.155258   -0.245179
C     -0.640474   -0.685240    0.334069
C     -1.357149    0.386355   -0.534141
C     -2.739402    0.759392    0.036957
O     -3.327342    1.776172   -0.728896
O     -1.458107   -0.018190   -1.878229
O     -1.480191   -1.793859    0.555796
O      1.276496   -2.108900    0.628845
O      2.924120   -0.556911   -1.051008
O      3.141827    1.677979    0.523056
H      2.483386    0.042339    1.557434
H      1.235950    1.285402    1.195651
H      1.324231    0.714569   -1.222321
H      0.516239   -1.639642   -1.229003
H     -0.452951   -0.234216    1.331410
H     -0.747179    1.313866   -0.506663
H     -3.411647   -0.124585    0.020264
H     -2.640320    1.087399    1.097190
H     -2.870785    2.621403   -0.478078
H     -2.120884   -0.754772   -1.927064
H     -1.572528   -2.285824   -0.300825
H      1.875561   -2.689088    0.089973
H      2.719903   -0.784630   -1.995853
H      2.724332    2.429017    0.025414
