38

C      1.232952   -1.041159   -0.489755
N      1.249011    0.171767    0.333584
C      0.191695    0.975128    0.612623
C      0.532393    1.891951    1.587592
C      1.856929    1.667437    1.895027
C      2.277092    0.621539    1.096729
C      3.645692    0.068220    1.143936
C      4.292339   -0.347558    0.049059
C      5.672861   -0.864517    0.097225
O      6.286896   -0.954977    1.195289
N      6.321663   -1.269832   -1.110762
O      7.584706   -1.758482   -1.083883
C     -1.161165    0.879650    0.029271
C     -1.368931    0.603255   -1.263142
C     -2.717621    0.563466   -1.864896
O     -2.826622    0.827664   -3.092392
C     -3.935624    0.210569   -1.095765
C     -5.166672    0.808886   -1.418393
C     -6.325417    0.469462   -0.712173
C     -6.268239   -0.478114    0.313087
C     -5.054190   -1.092043    0.629784
C     -3.893374   -0.755747   -0.073211
F     -7.505722    1.059605   -1.023467
H      1.512365   -0.792019   -1.534302
H      0.226054   -1.508244   -0.477037
H      1.939544   -1.796273   -0.086739
H     -0.110485    2.645181    2.024143
H      2.450282    2.211609    2.618240
H      4.161890    0.093165    2.096197
H      3.811709   -0.282285   -0.917931
H      5.817137   -1.213579   -2.023887
H      8.166101   -0.967097   -1.219336
H     -1.998218    1.148169    0.662063
H     -0.522485    0.496328   -1.929183
H     -5.227856    1.546733   -2.209055
H     -7.165163   -0.741721    0.858672
H     -5.013453   -1.834261    1.416539
H     -2.968074   -1.261875    0.171634
