44

C      1.129131   -1.789397    0.715914
C      0.771700   -0.684189   -0.297246
C      1.452525    0.655648    0.080907
C      2.950286    0.598087   -0.094114
C      3.790283    0.392133    1.012496
C      5.178024    0.316386    0.847514
C      5.737514    0.444581   -0.435438
C      4.900377    0.645383   -1.541527
C      3.515524    0.719413   -1.372853
O      7.118977    0.370805   -0.606490
O      5.983108    0.112184    1.967654
C     -0.769223   -0.508097   -0.490429
C     -1.376439   -1.698018   -1.258111
C     -1.527006   -0.262488    0.839432
C     -2.940194    0.209744    0.603365
C     -4.017391   -0.686252    0.699379
C     -5.326098   -0.253065    0.457623
C     -5.566093    1.088288    0.113087
C     -4.491545    1.982559    0.011867
C     -3.186544    1.546074    0.252957
O     -6.867273    1.526272   -0.128235
O     -6.372816   -1.168431    0.562743
H      0.616432   -2.739928    0.466182
H      2.220281   -1.991880    0.692235
H      0.852977   -1.488471    1.748376
H      1.190368   -0.994213   -1.281348
H      1.060607    1.473309   -0.562839
H      1.207997    0.933774    1.128394
H      3.367552    0.285065    2.004135
H      5.322489    0.742326   -2.533709
H      2.882388    0.869741   -2.238675
H      7.545892    0.459763   -1.521217
H      6.991892    0.049378    1.900975
H     -0.916951    0.383342   -1.140955
H     -2.409901   -1.456560   -1.584470
H     -1.415953   -2.608691   -0.625124
H     -0.784545   -1.918180   -2.171665
H     -1.006622    0.509511    1.442685
H     -1.534752   -1.190610    1.451720
H     -3.841190   -1.723569    0.957070
H     -4.666836    3.016753   -0.255922
H     -2.366636    2.248416    0.165175
H     -7.065586    2.487991   -0.378563
H     -7.336727   -0.904889    0.397046
