49

C     -3.393995    2.409080   -1.383210
N     -3.276006    1.658537   -0.105977
C     -4.635832    1.543488    0.473399
C     -2.420363    2.451636    0.812630
C     -2.685425    0.306830   -0.398779
C     -2.656205   -0.673926    0.819135
C     -3.767306   -1.736350    0.749906
C     -3.660826   -2.706797    1.886325
O     -3.698757   -2.299033    3.078948
O     -3.530717   -4.065941    1.628935
O     -1.350251    0.462228   -0.897004
C     -0.679117   -0.511644   -1.645875
O     -1.278048   -1.546484   -2.047864
C      0.782883   -0.348830   -1.910011
C      1.594979   -0.997232   -0.785253
C      3.097542   -0.763030   -0.981463
C      3.906403   -1.430553    0.141204
C      5.426043   -1.328268   -0.078022
C      5.990961    0.094282    0.070509
C      5.837637    0.617555    1.470065
O      6.667591    0.285542    2.358074
O      4.770007    1.446413    1.806960
H     -3.846095    3.416778   -1.225075
H     -4.036071    1.864683   -2.112749
H     -2.398397    2.561157   -1.854361
H     -5.117370    2.542720    0.565400
H     -4.615670    1.108218    1.495135
H     -5.290985    0.914204   -0.168355
H     -2.837012    3.474670    0.959003
H     -1.391743    2.568903    0.407983
H     -2.345444    1.991664    1.817574
H     -3.289026   -0.168075   -1.208732
H     -2.714508   -0.143730    1.787956
H     -1.683077   -1.211956    0.832388
H     -3.680272   -2.295637   -0.207168
H     -4.768791   -1.261398    0.781800
H      1.040980   -0.819980   -2.882747
H      1.019043    0.735062   -1.973201
H      1.282905   -0.569116    0.194134
H      1.388431   -2.091158   -0.773153
H      3.289901    0.331565   -0.983854
H      3.409923   -1.182502   -1.963490
H      3.641420   -2.509933    0.176143
H      3.630334   -0.992096    1.123918
H      5.937008   -1.994286    0.651073
H      5.673692   -1.709648   -1.092399
H      5.511123    0.787123   -0.652135
H      7.073367    0.070387   -0.181444
H      4.075140    1.714879    1.119192
