49

C      1.438927    1.839343    3.610329
C      1.950353    0.477544    3.148596
C      3.263373    0.594860    2.429235
C      3.350400    1.159364    1.221981
C      4.638049    1.214906    0.500831
C      4.774122    1.669899   -0.753382
C      3.643518    2.184330   -1.602040
C      2.727251    1.062539   -2.001819
C      1.409482    1.125993   -1.783777
C      0.500924    0.014465   -2.098097
O      0.927175   -1.027381   -2.669040
O     -0.842125    0.123786   -1.722738
C     -1.799438   -0.925284   -1.878372
C     -2.287522   -0.938450   -3.341117
C     -3.066237   -2.179428   -3.658050
O     -4.313836   -2.123064   -3.818108
O     -2.414338   -3.401831   -3.759849
C     -2.981987   -0.676476   -0.898166
N     -2.724148   -1.023764    0.536227
C     -3.893763   -0.573212    1.330721
C     -2.585275   -2.490502    0.714508
C     -1.517260   -0.343734    1.064466
H      0.492303    1.706557    4.175549
H      2.184982    2.326185    4.274298
H      1.237877    2.497536    2.738565
H      2.083501   -0.174585    4.038524
H      1.199369   -0.000521    2.483528
H      4.144152    0.164770    2.892212
H      2.456454    1.568166    0.772142
H      5.528169    0.857794    1.005875
H      5.765748    1.668589   -1.190068
H      3.107552    2.996271   -1.063142
H      4.066142    2.627330   -2.528535
H      3.162364    0.188681   -2.473065
H      0.983292    2.005906   -1.316527
H     -1.316406   -1.899777   -1.661676
H     -1.414965   -0.902105   -4.026881
H     -2.903931   -0.035177   -3.544750
H     -3.872230   -1.243931   -1.251871
H     -3.262087    0.399154   -0.985608
H     -4.029627    0.529485    1.254731
H     -3.773235   -0.821259    2.409716
H     -4.830329   -1.059748    0.976001
H     -3.441640   -3.033716    0.256442
H     -2.548896   -2.760171    1.794221
H     -1.647151   -2.876648    0.265332
H     -1.553256    0.749605    0.859414
H     -0.588046   -0.759162    0.618181
H     -1.427748   -0.483133    2.165570
