47

C      6.916756    1.442402   -0.803749
C      5.494374    1.847415   -0.417785
C      4.838033    0.858783    0.558041
C      4.486112   -0.482427   -0.108587
C      3.758387   -1.433085    0.854424
C      2.396992   -0.926128    1.240594
C      1.390932   -0.883043    0.360433
C      0.052845   -0.385954    0.714637
O     -0.196997    0.007513    1.887678
O     -0.938643   -0.362157   -0.273466
C     -2.250972    0.178838   -0.085784
C     -2.247479    1.670813   -0.480013
C     -1.443232    2.496106    0.475691
O     -0.274122    2.855692    0.176350
O     -1.974121    2.841114    1.712132
C     -3.246624   -0.631220   -0.973545
N     -4.545015   -1.004283   -0.327937
C     -5.389707   -1.670778   -1.350529
C     -5.274117    0.188204    0.164575
C     -4.335549   -1.962920    0.786054
H      7.536103    1.283135    0.104435
H      6.910468    0.516621   -1.415191
H      7.378795    2.251176   -1.408205
H      5.538026    2.845129    0.070506
H      4.873779    1.949614   -1.334495
H      5.509552    0.685349    1.427409
H      3.907192    1.330293    0.941135
H      3.860339   -0.306606   -1.010591
H      5.419617   -0.985475   -0.437931
H      3.653901   -2.431751    0.377090
H      4.371660   -1.567406    1.771804
H      2.242167   -0.610182    2.265408
H      1.554849   -1.218280   -0.656681
H     -2.529293    0.095486    0.982300
H     -1.836802    1.785250   -1.507415
H     -3.282175    2.070480   -0.488873
H     -3.438305   -0.064896   -1.914783
H     -2.733229   -1.561321   -1.312222
H     -4.891022   -2.582739   -1.749954
H     -6.371830   -1.981200   -0.927183
H     -5.595864   -0.990723   -2.207746
H     -6.278148   -0.091860    0.555635
H     -5.422082    0.928830   -0.652467
H     -4.734295    0.686502    0.997306
H     -5.306703   -2.356620    1.162147
H     -3.721301   -2.830745    0.457511
H     -3.833245   -1.492949    1.655930
