44

C     -0.063240    1.484442   -1.067086
C      0.884076    2.596453   -0.598721
C      0.942131    3.697550   -1.613492
O      0.193183    4.703368   -1.490926
N      1.808708    3.593186   -2.742866
C     -0.165254    0.350319   -0.032106
C     -1.193239   -0.656127   -0.472252
O     -0.904836   -1.487980   -1.375985
N     -2.510745   -0.637862    0.097200
C     -3.559738   -1.564298   -0.340352
C     -4.724584   -1.566390    0.661901
O     -5.653649   -2.566928    0.339493
C     -4.046200   -1.177097   -1.712616
O     -4.285766    0.030677   -1.980627
O     -4.274129   -2.148314   -2.683787
N      1.131173   -0.311669    0.140031
C      1.531246   -0.904587    1.384510
O      0.736326   -0.924662    2.363588
C      2.911493   -1.491236    1.541071
C      3.990806   -0.400806    1.404311
C      3.859129    0.644156    2.470949
O      4.370622    0.454926    3.606889
O      3.131331    1.802810    2.219691
N      3.120753   -2.529575    0.531798
H     -1.075177    1.919774   -1.227965
H      0.293349    1.075275   -2.038943
H      1.907196    2.190128   -0.447418
H      0.531620    3.007337    0.372550
H      1.834972    4.353097   -3.458785
H      2.418546    2.755318   -2.870039
H     -0.484020    0.798426    0.935347
H     -2.727966    0.074047    0.831574
H     -3.135510   -2.592604   -0.370403
H     -5.215618   -0.565793    0.699693
H     -4.326173   -1.780255    1.676775
H     -6.274354   -2.177627   -0.330566
H     -4.113977   -3.130351   -2.493664
H      1.752171   -0.431263   -0.692763
H      3.000008   -1.952608    2.552225
H      4.998253   -0.864950    1.483791
H      3.927408    0.082596    0.405403
H      3.016776    2.510200    2.935639
H      4.043546   -2.986616    0.715303
H      2.399353   -3.274487    0.671631
