34

C     -2.673328   -1.154894   -0.819151
N     -2.023705    0.175940   -0.915983
C     -3.069403    1.173268   -1.255488
C     -1.024969    0.162273   -2.010947
C     -1.414667    0.578438    0.392026
C     -0.198536   -0.266344    0.865648
C      0.046287   -0.024042    2.368341
C      1.153963   -0.880032    2.900116
O      2.301478   -0.393911    3.080283
O      0.926683   -2.224462    3.166949
O      0.962780    0.128289    0.129032
C      2.015063   -0.735221   -0.199679
O      1.958380   -1.963940    0.080312
C      3.232356   -0.181408   -0.862358
C      4.139530    0.416490    0.166848
O      5.092409   -0.261083    0.634364
O      3.914121    1.703657    0.646877
H     -3.259919   -1.381194   -1.738145
H     -1.931075   -1.973359   -0.715937
H     -3.368564   -1.199891    0.048310
H     -2.631509    2.190830   -1.368649
H     -3.578196    0.920310   -2.213383
H     -3.849775    1.221604   -0.462463
H     -0.452193    1.116110   -2.040368
H     -1.516598    0.026276   -3.000570
H     -0.308978   -0.679724   -1.897810
H     -1.082238    1.641956    0.347024
H     -2.201590    0.544593    1.180978
H     -0.409073   -1.344904    0.719877
H      0.287119    1.048064    2.541421
H     -0.874467   -0.262557    2.943279
H      2.931500    0.599317   -1.593299
H      3.763576   -0.984168   -1.419435
H      3.143540    2.263720    0.301979
