37

C     -3.373754    2.557008   -0.245147
C     -3.700442    1.092416   -0.542910
C     -2.496059    0.236938   -0.251368
O     -2.263694   -0.133574    0.932445
N     -1.583470   -0.103609   -1.305801
C     -0.359943   -0.871846   -1.056220
C      0.230737   -1.381616   -2.383331
C      1.400063   -2.290497   -2.153454
O      1.210760   -3.500931   -1.858799
O      2.694768   -1.786636   -2.227151
C      0.637479   -0.009797   -0.324538
O      0.910539    1.139551   -0.767828
N      1.291504   -0.503238    0.853769
C      2.294141    0.286867    1.574686
C      2.508422   -0.265924    2.989413
O      1.311137   -0.190531    3.713062
C      3.589037    0.281531    0.814744
O      4.130098   -0.809431    0.488162
O      4.199740    1.485938    0.479829
N     -4.840199    0.655945    0.265065
H     -3.131699    2.691496    0.831238
H     -2.505769    2.887819   -0.855329
H     -4.242819    3.200319   -0.499370
H     -3.964229    1.000790   -1.620943
H     -1.790661    0.234473   -2.273484
H     -0.623601   -1.757655   -0.435892
H      0.547195   -0.524593   -3.017522
H     -0.550793   -1.941536   -2.942070
H      3.495004   -2.383925   -2.057146
H      1.064499   -1.468845    1.184607
H      1.932830    1.335075    1.671956
H      2.850150   -1.324895    2.937248
H      3.289859    0.335823    3.506699
H      1.507262   -0.567585    4.609852
H      5.074885    1.500235   -0.030138
H     -5.674550    1.225521   -0.007158
H     -5.068426   -0.331083    0.002823
