37

C      2.684204   -1.204456   -1.974588
C      3.125219   -0.380509   -0.760439
C      3.532121   -1.291953    0.365969
O      2.658335   -1.837428    1.093464
O      4.874476   -1.590742    0.578505
C      2.047188    0.570674   -0.315441
O      2.366805    1.632311    0.287499
O      0.700488    0.250403   -0.530191
C     -0.391037    1.098194   -0.165435
C     -0.471058    2.270998   -1.164861
C     -1.450014    3.318305   -0.726618
O     -1.248159    3.973485    0.330387
O     -2.590558    3.563488   -1.480865
C     -1.700315    0.258205   -0.185876
N     -1.939952   -0.596717    1.019501
C     -0.770333   -1.451680    1.334966
C     -3.095890   -1.481325    0.732209
C     -2.279028    0.235047    2.201143
H      3.514846   -1.859819   -2.314905
H      2.412489   -0.529009   -2.813281
H      1.809188   -1.843508   -1.724581
H      4.006974    0.224714   -1.067559
H      5.599116   -1.198104   -0.010952
H     -0.208409    1.512074    0.846366
H      0.524788    2.754413   -1.262088
H     -0.751983    1.890447   -2.171550
H     -2.572502    0.935967   -0.327047
H     -1.669823   -0.374065   -1.103499
H     -0.442383   -2.025313    0.440751
H     -1.011549   -2.179587    2.139089
H      0.085105   -0.846907    1.702568
H     -2.883052   -2.154236   -0.129962
H     -4.002490   -0.885949    0.483236
H     -3.342634   -2.125214    1.606911
H     -1.416705    0.837541    2.545816
H     -2.585730   -0.398936    3.060188
H     -3.117738    0.929190    1.977834
