41

C     -4.240113   -1.197584    1.071125
N     -3.608720   -0.062561    0.348949
C     -4.109871   -0.076396   -1.045861
C     -4.048562    1.184397    1.021791
C     -2.116521   -0.235958    0.432618
C     -1.225923    0.456569   -0.646197
C     -1.144888    1.995841   -0.548475
C     -0.709335    2.474355    0.805145
O     -1.485520    3.166118    1.514608
O      0.560357    2.166909    1.278006
O      0.092733   -0.085635   -0.524903
C      1.051392   -0.053643   -1.546860
O      0.758948    0.398185   -2.686939
C      2.412125   -0.552419   -1.302712
C      2.789768   -1.026760   -0.111288
C      4.182103   -1.536459    0.124811
C      5.194869   -0.387657    0.150332
C      6.571201   -0.909028    0.432427
O      7.017199   -0.900654    1.609798
O      7.349493   -1.442017   -0.591010
H     -5.349841   -1.104596    1.092157
H     -3.883491   -1.247583    2.125075
H     -4.002001   -2.169246    0.582026
H     -5.222873   -0.096625   -1.072623
H     -3.797776    0.834963   -1.599777
H     -3.738859   -0.972283   -1.591636
H     -3.752626    2.088253    0.462058
H     -5.158552    1.228030    1.100560
H     -3.635608    1.255429    2.052619
H     -1.870868   -1.319823    0.339853
H     -1.747933    0.042904    1.445419
H     -1.603320    0.186691   -1.654568
H     -0.404255    2.365529   -1.288273
H     -2.101598    2.462013   -0.850007
H      3.124315   -0.526228   -2.119485
H      2.082400   -1.074951    0.708241
H      4.204407   -2.064257    1.103361
H      4.449935   -2.269820   -0.667641
H      5.202256    0.137936   -0.828834
H      4.908833    0.348330    0.933952
H      7.006716   -1.480270   -1.543507
