49

C     -0.984172   -1.993500   -1.558722
C     -0.529830   -0.540071   -1.759194
C     -0.527188    0.276340   -0.444455
C     -1.922847    0.438419    0.117233
O     -2.418049   -0.459661    0.852602
N     -2.709730    1.585053   -0.239898
C     -4.115311    1.717566    0.155808
C     -4.588976    3.169836   -0.035542
C     -5.963909    3.378953    0.522447
O     -6.966736    3.351697   -0.240301
O     -6.134996    3.565397    1.890386
C     -4.958509    0.768494   -0.650940
O     -4.847501    0.729143   -1.906469
O     -5.882957   -0.050489   -0.010525
N      0.377802   -0.324635    0.545051
C      1.806160   -0.239562    0.429203
O      2.323342    0.485967   -0.464723
C      2.679590   -1.034293    1.378948
C      4.168376   -0.607067    1.359941
C      4.958067   -1.032452    0.088574
C      5.970594    0.051078   -0.306099
C      5.690433   -2.367607    0.300505
N      2.537561   -2.473407    1.142653
O     -1.359943    0.091808   -2.700282
H     -0.356937   -2.500143   -0.795124
H     -0.880441   -2.551355   -2.513387
H     -2.048894   -2.035603   -1.247505
H      0.513939   -0.559569   -2.150321
H     -0.148108    1.295883   -0.678226
H     -2.275255    2.320664   -0.842891
H     -4.206363    1.463632    1.236083
H     -3.890430    3.853857    0.493012
H     -4.572588    3.442183   -1.114267
H     -7.058481    3.694940    2.285319
H     -6.464914   -0.689128   -0.539552
H     -0.014475   -0.872938    1.343328
H      2.310462   -0.816946    2.406546
H      4.198149    0.498926    1.483026
H      4.667653   -1.015732    2.266392
H      4.264399   -1.158788   -0.770140
H      6.534766   -0.258043   -1.211711
H      6.690495    0.233770    0.520748
H      5.443210    1.000326   -0.540414
H      6.438826   -2.279487    1.118070
H      4.977366   -3.175684    0.560630
H      6.216647   -2.667291   -0.631089
H      1.588816   -2.774617    1.462824
H      2.583852   -2.667169    0.115412
H     -1.112966   -0.268694   -3.592410
