46

C     -5.148651   -1.626652   -1.595148
C     -4.781480   -0.581858   -0.530291
C     -5.794513    0.570304   -0.563401
C     -3.349662   -0.026675   -0.726437
C     -2.223810   -1.080768   -0.582335
C     -0.881650   -0.441718   -0.824866
O     -0.235344   -0.741354   -1.865945
N     -0.344584    0.513214    0.105042
C      0.963320    1.148081   -0.101187
C      1.156918    2.362685    0.830757
C      1.173068    1.998244    2.290892
O      2.227407    1.550887    2.814391
O      0.031618    2.143016    3.074765
C      2.079471    0.147860    0.069923
O      1.928434   -0.838103    0.843166
N      3.330456    0.350779   -0.602857
C      4.478348   -0.536959   -0.394356
C      5.538523   -0.305742   -1.482432
O      6.561613   -1.261347   -1.388593
C      5.064877   -0.300255    0.972676
O      5.279470    0.875000    1.372592
O      5.406932   -1.371701    1.792854
N     -2.224529   -1.724940    0.734713
H     -6.215007   -1.921691   -1.494106
H     -4.542456   -2.546676   -1.467104
H     -4.986714   -1.220513   -2.616641
H     -4.859287   -1.056797    0.471341
H     -5.560827    1.311259    0.230785
H     -6.820999    0.186729   -0.379928
H     -5.773888    1.082581   -1.549520
H     -3.178920    0.784190    0.015810
H     -3.277757    0.437224   -1.735748
H     -2.361911   -1.864118   -1.359708
H     -0.921845    0.777663    0.933416
H      0.997660    1.534508   -1.143949
H      2.113180    2.870626    0.577012
H      0.344078    3.097021    0.643304
H     -0.829432    2.511907    2.689441
H      3.427621    1.179889   -1.232821
H      4.132188   -1.591107   -0.476514
H      5.059900   -0.410052   -2.479610
H      5.953292    0.727387   -1.417662
H      7.211769   -0.921571   -0.719844
H      5.264778   -2.329279    1.495000
H     -2.985607   -2.441236    0.762947
H     -2.426048   -1.019940    1.480795
