43

C     -4.134242    0.006463    1.902726
N     -3.944387   -0.104767    0.432560
C     -5.233706    0.242215   -0.223169
C     -3.653935   -1.522122    0.096878
C     -2.852958    0.803221   -0.089001
C     -1.399429    0.421145    0.360905
C     -0.608794   -0.301859   -0.741592
C      0.753803   -0.681011   -0.250316
N      1.057167   -1.912556    0.215771
C      2.348658   -1.813740    0.589270
C      2.789625   -0.529602    0.356521
N      1.784906    0.183025   -0.175493
C      4.172605   -0.002291    0.596128
C      4.973772    0.105596   -0.716957
C      6.285066    0.791326   -0.464289
O      7.206988    0.194278    0.154629
O      6.471010    2.105011   -0.884549
N      5.214137   -1.208061   -1.322158
C     -3.113369    2.265480    0.231126
O     -3.626716    3.020047   -0.637363
O     -2.798526    2.785720    1.482050
H     -4.910342   -0.708061    2.258201
H     -3.206815   -0.220163    2.464458
H     -4.480199    1.020480    2.195566
H     -5.151079    0.180376   -1.331355
H     -6.049421   -0.446572    0.093622
H     -5.564509    1.270214    0.041740
H     -3.480700   -1.645658   -0.995688
H     -4.501455   -2.188080    0.377734
H     -2.765850   -1.902089    0.643808
H     -2.863759    0.745646   -1.203539
H     -0.820557    1.337282    0.616876
H     -1.393690   -0.197910    1.278358
H     -0.500526    0.365089   -1.624183
H     -1.138876   -1.218976   -1.069575
H      2.928592   -2.627945    1.002995
H      1.798338    1.186908   -0.463338
H      4.704415   -0.657607    1.320356
H      4.083161    1.004771    1.059184
H      4.397945    0.728426   -1.438020
H      7.343961    2.587902   -0.709252
H      4.306933   -1.591016   -1.674438
H      5.572756   -1.870534   -0.595820
