23

C     -1.136010   -0.530974   -0.565675
C     -1.889706   -1.185850    0.595095
O     -3.153948   -1.618010    0.170939
N      0.191900   -0.056565   -0.110315
C      1.208097   -1.123025   -0.246391
C      2.345141   -0.874491    0.694596
O      3.509659   -0.695049    0.248052
O      2.112433   -0.840731    2.065782
C      0.606260    1.153755   -0.853460
C     -0.098623    2.358507   -0.312454
O     -0.835417    3.051967   -1.063402
O      0.064012    2.712658    1.023071
H     -1.043294   -1.247080   -1.414319
H     -1.763092    0.315320   -0.926509
H     -1.989092   -0.464604    1.438470
H     -1.327090   -2.066359    0.967554
H     -3.730660   -0.810994    0.126255
H      0.785204   -2.116278    0.017293
H      1.575706   -1.194129   -1.296095
H      2.869608   -0.671550    2.717066
H      1.695956    1.340586   -0.733692
H      0.409135    1.038929   -1.944288
H     -0.406180    3.523965    1.406215
