42

C     -4.268042    1.983890    1.296336
C     -3.237309    0.858416    1.298425
C     -3.911714   -0.510918    1.133997
C     -2.915199   -1.687220    1.245444
C     -2.584688   -2.347770   -0.105383
C     -1.634550   -1.532278   -1.000417
C     -0.166745   -1.543233   -0.516004
C      0.262321   -0.199332    0.094746
C      1.689372   -0.229023    0.671322
C      2.806658   -0.521703   -0.351433
C      2.871357    0.470338   -1.527409
C      3.044460    1.896846   -1.075630
C      4.167955    2.439408   -0.579384
C      5.478389    1.772556   -0.436369
O      6.383560    2.349307    0.222982
O      5.752741    0.547836   -1.035974
H     -3.752110    2.960626    1.409777
H     -4.979257    1.858645    2.140435
H     -4.831488    1.989003    0.338925
H     -2.677050    0.889857    2.258222
H     -2.526021    1.038011    0.467990
H     -4.459631   -0.542518    0.166781
H     -4.671437   -0.621336    1.939500
H     -3.389872   -2.470174    1.877008
H     -1.987341   -1.396903    1.780027
H     -3.529817   -2.536282   -0.660146
H     -2.135015   -3.347232    0.083396
H     -2.016817   -0.500866   -1.143079
H     -1.661646   -2.001450   -2.008639
H      0.004902   -2.360368    0.218348
H      0.479230   -1.752539   -1.395152
H     -0.419516    0.055658    0.929619
H      0.167146    0.611142   -0.658183
H      1.735414   -0.999720    1.471435
H      1.892742    0.747956    1.160772
H      3.774431   -0.513218    0.191615
H      2.688110   -1.550017   -0.752648
H      1.933995    0.394877   -2.116955
H      3.678597    0.184817   -2.231915
H      2.171292    2.534967   -1.144298
H      4.112145    3.470166   -0.249606
H      6.660450    0.109779   -0.934640
