48

C     -5.983993    0.119655    1.735227
C     -5.287380    0.666499    0.482801
C     -6.105314    0.342072   -0.783153
C     -5.183939   -0.071761   -1.916324
O     -4.473654   -1.223892   -1.526402
C     -3.512083   -0.935785   -0.520615
N     -3.905333    0.150433    0.402843
C     -2.873778    0.713412    1.238018
O     -3.167835    1.563870    2.122131
C     -1.459957    0.311832    1.017828
C     -0.460384    0.596343    1.969619
C      0.858768    0.205887    1.726336
O      1.749671    0.475328    2.577840
C      1.186333   -0.464954    0.535641
C      0.160470   -0.738010   -0.381255
N     -1.131566   -0.368117   -0.129866
C     -2.151936   -0.623565   -1.161632
C      2.578472   -0.894015    0.248205
O      3.333075   -1.234848    1.199752
N      3.077498   -0.919639   -1.099253
C      4.421096   -1.391643   -1.427130
C      5.449186   -0.370264   -1.014985
C      6.337987   -0.616240    0.049503
C      7.271356    0.356821    0.423029
C      7.325432    1.577131   -0.255987
C      6.445224    1.828588   -1.311443
C      5.510234    0.860795   -1.689700
F      8.231134    2.517267    0.110148
F      6.304397   -1.792078    0.726452
O     -0.765939    1.256047    3.157303
H     -5.447790    0.438383    2.652666
H     -6.009201   -0.990858    1.707558
H     -7.024474    0.504958    1.793137
H     -5.245032    1.776006    0.566056
H     -6.698445    1.230495   -1.092254
H     -6.820874   -0.490713   -0.599664
H     -5.798485   -0.320207   -2.807193
H     -4.503903    0.761465   -2.204774
H     -3.385499   -1.859818    0.084610
H      0.394365   -1.270731   -1.295328
H     -2.231729    0.270860   -1.815472
H     -1.862211   -1.489361   -1.798440
H      2.492190   -0.539174   -1.876205
H      4.495527   -1.548082   -2.525265
H      4.598303   -2.379508   -0.950409
H      7.953377    0.164554    1.241395
H      6.485453    2.774169   -1.836699
H      4.831188    1.070396   -2.507149
