46

C     -6.746651    0.733830    1.784687
C     -6.097081    1.003545    0.452135
C     -4.947498    0.364446    0.150362
C     -4.216742    0.557913   -1.155200
C     -2.996073   -0.325580   -1.219538
C     -3.078480   -1.637199   -1.725710
C     -1.937819   -2.449293   -1.744338
C     -0.720792   -1.971118   -1.254769
C     -0.624394   -0.668579   -0.735723
C     -1.773041    0.141535   -0.709655
C      0.652521   -0.154734   -0.187967
O      0.621454    0.674088    0.762804
N      1.917620   -0.590546   -0.717755
C      3.180991   -0.140654   -0.200499
C      4.162463   -1.076584    0.151305
C      5.399467   -0.631414    0.639738
C      5.614997    0.759550    0.752287
C      6.833758    1.239599    1.245406
C      7.843972    0.343897    1.622641
C      7.632731   -1.034041    1.505782
C      6.416784   -1.523699    1.018512
O      9.059630    0.812440    2.114625
O      4.667993    1.617240    0.385148
C      3.487877    1.229155   -0.088001
O      2.660427    2.102872   -0.457856
O      3.898757   -2.437855    0.023663
O     -4.292628   -2.132138   -2.202321
C     -6.741329    1.971669   -0.512856
H     -7.711405    1.273410    1.886083
H     -6.946543   -0.353924    1.892918
H     -6.072407    1.062348    2.604003
H     -4.527286   -0.324949    0.880962
H     -4.897041    0.326409   -2.001645
H     -3.914805    1.622495   -1.256769
H     -1.996475   -3.460410   -2.127818
H      0.130616   -2.637722   -1.252596
H     -1.716766    1.142936   -0.298691
H      1.939661   -1.328625   -1.454656
H      6.995778    2.306754    1.332192
H      8.413531   -1.727436    1.794140
H      6.277300   -2.594426    0.938878
H      9.244398    1.803849    2.215646
H     -4.377659   -3.075380   -2.565082
H     -6.039301    2.799111   -0.746470
H     -7.663413    2.417228   -0.087727
H     -7.017094    1.445661   -1.450275
