49

C      6.993836   -1.814865   -0.539995
C      5.697319   -2.038295    0.238365
C      4.556128   -1.121633   -0.229661
C      4.735108    0.329767    0.244255
C      3.641124    1.271162   -0.288349
C      2.237357    0.972331    0.279641
C      1.345385    0.237242   -0.736154
C      0.047030   -0.305013   -0.112227
C     -0.877233    0.765333    0.495317
C     -1.394307    1.770748   -0.548436
C     -2.435731    2.732338    0.039716
C     -3.704741    2.019490    0.391209
O     -4.052001    1.915513    1.599418
O     -4.479080    1.454457   -0.627842
C     -5.591075    0.595965   -0.382925
C     -5.109358   -0.796163    0.069551
C     -6.283715   -1.754606    0.330014
O     -7.055061   -1.944471   -0.827165
O     -4.206651   -1.349213   -0.856503
H      7.740485   -2.579046   -0.237710
H      6.813698   -1.911439   -1.631735
H      7.419234   -0.813909   -0.322378
H      5.382847   -3.094034    0.088630
H      5.884072   -1.895369    1.324935
H      3.611989   -1.523293    0.195813
H      4.474228   -1.155915   -1.338203
H      4.747940    0.364280    1.355777
H      5.711290    0.718081   -0.114242
H      3.638345    1.257225   -1.400810
H      3.922868    2.305001    0.009889
H      2.311214    0.386853    1.222343
H      1.753615    1.940541    0.532383
H      1.897802   -0.627016   -1.160293
H      1.111119    0.910530   -1.587613
H     -0.514791   -0.864241   -0.891957
H      0.310803   -1.036721    0.682338
H     -1.740864    0.233760    0.950148
H     -0.358330    1.303066    1.316892
H     -0.545125    2.381630   -0.921226
H     -1.833023    1.228804   -1.415341
H     -2.017069    3.242281    0.935157
H     -2.670777    3.514053   -0.713803
H     -6.173131    0.504288   -1.324416
H     -6.257925    1.046200    0.384887
H     -4.567351   -0.675731    1.032105
H     -5.897051   -2.728229    0.710895
H     -6.934906   -1.328235    1.122832
H     -6.638495   -2.690849   -1.331917
H     -4.647046   -1.352652   -1.746133
