39

C      1.442959    1.974091    1.109955
C      1.352145    0.787959    0.130982
C      2.605876   -0.060769    0.256087
N      2.981077   -0.532797    1.477690
C      4.083319   -1.311856    1.627416
N      4.835675   -1.641389    0.546453
C      4.501747   -1.201602   -0.693697
C      3.374265   -0.399840   -0.870278
F      3.038894    0.026690   -2.114164
C      0.047987   -0.058804    0.332364
C      0.023579   -1.234612   -0.701100
N     -1.255276   -1.948627   -0.711965
C     -2.269529   -1.782474   -1.577658
N     -3.284360   -2.625116   -1.306342
C     -2.819172   -3.306235   -0.236171
N     -1.585673   -2.909278    0.131271
C     -1.180276    0.859980    0.148289
C     -1.974759    1.301592    1.238692
C     -3.063167    2.153844    1.023795
C     -3.366182    2.604314   -0.260296
C     -2.570167    2.219380   -1.336942
C     -1.481120    1.369180   -1.135351
F     -4.420767    3.433184   -0.457907
F     -1.694211    0.950555    2.518547
O      0.089554   -0.608004    1.631593
H      0.626662    2.702503    0.921977
H      1.378845    1.628858    2.163774
H      2.405719    2.511372    0.970182
H      1.324151    1.235256   -0.886914
H      4.360676   -1.671742    2.608526
H      5.111544   -1.477530   -1.543675
H      0.249425   -0.866449   -1.725032
H      0.825010   -1.963820   -0.452464
H     -2.272383   -1.075478   -2.396589
H     -3.373545   -4.087026    0.266602
H     -3.667294    2.477373    1.861905
H     -2.791448    2.585497   -2.331285
H     -0.872691    1.110900   -1.990998
H     -0.717088   -1.169082    1.762729
