43

C      6.213697   -0.588893    1.671769
C      6.174120   -0.602150    0.144110
C      5.458425    0.623645   -0.451157
C      3.977243    0.766361   -0.055726
C      3.109139   -0.399907   -0.559404
C      1.612996   -0.184938   -0.275600
C      0.952811    0.766900   -1.288701
C     -0.525641    1.037661   -0.967000
C     -1.424523   -0.173412   -1.247441
C     -2.861083    0.186868   -1.040189
O     -3.551575    0.592963   -2.014555
O     -3.407315    0.118591    0.246458
C     -4.772221    0.415704    0.537185
C     -5.686528   -0.732318    0.084579
C     -7.151634   -0.458947    0.458808
O     -7.648418    0.643030   -0.253879
O     -5.260398   -1.922304    0.696186
H      5.200669   -0.761050    2.090962
H      6.876729   -1.404172    2.030588
H      6.611077    0.379704    2.042815
H      7.221080   -0.603589   -0.229336
H      5.703876   -1.542651   -0.211486
H      5.998831    1.542160   -0.133697
H      5.531776    0.572985   -1.559423
H      3.881422    0.862885    1.046453
H      3.611400    1.717084   -0.495612
H      3.270228   -0.557989   -1.648443
H      3.418380   -1.327992   -0.033452
H      1.114661   -1.175413   -0.335569
H      1.475399    0.199067    0.759060
H      1.480917    1.742877   -1.277328
H      1.043423    0.349592   -2.315529
H     -0.863889    1.887431   -1.600600
H     -0.629378    1.349083    0.095943
H     -1.278273   -0.522557   -2.293000
H     -1.170796   -1.008861   -0.562300
H     -5.061072    1.370169    0.045438
H     -4.871704    0.554119    1.635183
H     -5.612901   -0.830508   -1.023501
H     -7.763828   -1.346211    0.190524
H     -7.252981   -0.307857    1.559204
H     -7.505935    1.443678    0.315199
H     -5.638200   -2.670838    0.164195
