33

C      1.728582    0.165900    0.106176
C      1.903599    1.535014   -0.116729
C      1.677212    2.452634    0.917472
C      1.277384    1.991906    2.176985
C      1.100033    0.623989    2.402246
C      1.316224   -0.307132    1.368734
C      1.107539   -1.757156    1.628056
O      1.193733   -2.189305    2.808164
C      0.717368   -2.722213    0.540847
C     -0.719009   -2.501879    0.157495
O     -1.614645   -3.232213    0.667817
C     -1.111352   -1.364202   -0.699512
C     -0.632180   -1.254291   -2.019471
C     -0.972127   -0.136362   -2.795652
C     -1.799705    0.860242   -2.277204
C     -2.294422    0.744000   -0.972776
C     -1.949297   -0.359260   -0.180049
O     -2.422969   -0.450487    1.130813
O     -2.127256    1.961160   -3.065569
O      0.166787   -2.260142   -2.561142
O      1.844134    3.819887    0.705594
H      1.938885   -0.510326   -0.709396
H      2.218024    1.881378   -1.092929
H      1.088510    2.695032    2.977985
H      0.774698    0.293506    3.380859
H      1.386170   -2.627722   -0.333986
H      0.839955   -3.764333    0.909073
H     -0.598739   -0.048065   -3.809230
H     -2.946672    1.509921   -0.571441
H     -3.010949    0.267742    1.533536
H     -2.729569    2.698543   -2.717224
H      0.525250   -2.201727   -3.506451
H      2.124805    4.185962   -0.194675
