49

C      0.860005   -1.605731    2.116277
C      1.040288   -1.059572    0.687224
C      2.058184   -1.883125   -0.140033
C      3.517528   -1.725871    0.323976
C      4.035795   -0.323738    0.125963
C      4.168252    0.547099    1.218171
C      4.628634    1.853246    1.029148
C      4.963904    2.313245   -0.256200
C      4.827658    1.437621   -1.348958
C      4.366613    0.131932   -1.158772
N      5.436836    3.659174   -0.447502
O      5.735501    4.073539   -1.586876
O      5.568000    4.513187    0.623654
N     -0.243319   -0.931074   -0.035180
C     -1.056053   -2.159685   -0.063645
C     -2.163509   -2.041545   -1.129139
C     -3.149371   -0.932042   -0.812929
C     -3.240091    0.190271   -1.653662
C     -4.133704    1.225356   -1.363373
C     -4.953360    1.156610   -0.221581
C     -4.861300    0.041011    0.617205
C     -3.968554   -0.994642    0.328474
O     -5.864853    2.169080    0.112978
C     -6.061391    3.356885   -0.647230
O     -2.836861   -3.264698   -1.299576
H      0.032088   -1.070304    2.627496
H      1.782707   -1.443519    2.710878
H      0.635020   -2.693132    2.103851
H      1.445190   -0.029261    0.789328
H      1.803723   -2.962762   -0.087726
H      1.987781   -1.583067   -1.208696
H      4.151109   -2.423640   -0.265848
H      3.619469   -2.039589    1.384519
H      3.909277    0.217207    2.216649
H      4.719971    2.503538    1.889388
H      5.075982    1.762605   -2.351141
H      4.265721   -0.524783   -2.014116
H     -0.803666   -0.178725    0.431198
H     -1.508151   -2.348561    0.934991
H     -0.431129   -3.037301   -0.328561
H     -1.658467   -1.819865   -2.095218
H     -2.616341    0.268624   -2.535440
H     -4.177862    2.074280   -2.031828
H     -5.484568   -0.022591    1.500237
H     -3.915709   -1.840768    1.001051
H     -6.406287    3.101936   -1.671573
H     -5.117461    3.939905   -0.695437
H     -6.837731    3.977877   -0.155275
H     -3.145498   -3.574639   -0.408677
