27

C      2.537012    2.540462    0.646520
C      3.094113    1.500049   -0.092943
C      2.332520    0.370853   -0.437872
C      0.949751    0.321727   -0.077777
C      0.413908    1.382407    0.698956
C      1.209535    2.473346    1.056211
O     -0.852257    1.366503    1.093998
C     -1.696799    0.394229    0.782289
C     -3.010350    0.459013    1.257105
C     -3.925384   -0.541384    0.933101
C     -3.534874   -1.613624    0.131282
C     -2.221690   -1.699193   -0.354805
C     -1.282398   -0.687553   -0.028525
C      0.055075   -0.701926   -0.484054
O      0.432705   -1.604550   -1.278322
O     -1.861208   -2.787340   -1.150822
C      3.051161   -0.734771   -1.104238
O      2.963950   -1.911575   -0.661150
O      3.895674   -0.463269   -2.176760
H      3.143450    3.394672    0.919057
H      4.141092    1.560435   -0.366231
H      0.790794    3.281053    1.643682
H     -3.323300    1.289896    1.877085
H     -4.941013   -0.485021    1.303129
H     -4.256527   -2.382944   -0.112701
H     -2.523352   -3.516638   -1.388936
H      4.418413   -1.204856   -2.627281
