27

C      3.991214    1.128359    0.034397
C      3.743728    0.390602   -1.126626
C      2.763893   -0.607278   -1.127869
C      2.026488   -0.875030    0.037740
C      2.277443   -0.126344    1.199046
C      3.258163    0.870498    1.196088
C      0.955840   -1.931753    0.043161
O     -0.331207   -1.334116    0.183518
C     -0.957245   -0.603829   -0.834733
O     -0.406688   -0.492933   -1.964985
C     -2.266675    0.034860   -0.582080
C     -2.922667    0.765881   -1.588348
N     -4.125919    1.348810   -1.339284
C     -4.731900    1.249583   -0.127104
C     -4.119836    0.535157    0.903117
C     -2.884334   -0.073247    0.674499
H      4.749406    1.900752    0.033329
H      4.310056    0.593175   -2.026470
H      2.579852   -1.167219   -2.036313
H      1.712246   -0.314185    2.103699
H      3.448587    1.444241    2.093875
H      1.126785   -2.612008    0.904061
H      0.987322   -2.553130   -0.878745
H     -2.481856    0.874775   -2.570738
H     -5.689282    1.725910    0.036658
H     -4.598500    0.453748    1.870462
H     -2.414914   -0.625280    1.479025
