27

C      1.564025    0.962012    2.585524
O      0.627630    0.556121    1.592712
C      0.966108    0.160585    0.286354
N     -0.024299   -0.209620   -0.588110
N      0.277766   -0.641237   -1.816952
C      1.555418   -0.711722   -2.266948
C      2.601110   -0.325906   -1.432086
C      2.303870    0.113380   -0.142368
N      3.955452   -0.387295   -1.887016
C     -1.411726   -0.165926   -0.208869
C     -1.972448    1.000599    0.342798
C     -3.327423    1.037796    0.686178
C     -4.135331   -0.082097    0.472390
C     -3.590937   -1.239273   -0.090824
C     -2.236496   -1.280519   -0.436057
H      2.268185    0.132778    2.808307
H      1.016537    1.221730    3.514550
H      2.122436    1.857614    2.240263
H      1.750836   -1.064510   -3.271127
H      3.111989    0.403111    0.515529
H      4.180549   -0.718697   -2.851587
H      4.742664   -0.101347   -1.262987
H     -1.364495    1.883801    0.492265
H     -3.752541    1.937324    1.112334
H     -5.184189   -0.051250    0.737725
H     -4.218801   -2.104288   -0.261170
H     -1.825889   -2.183164   -0.870828
