24

C     -0.918372    1.302504   -0.325281
C     -2.297720    1.391436   -0.116967
C     -3.091736    0.240332   -0.149445
C     -2.496915   -1.007898   -0.391159
C     -1.116794   -1.097635   -0.600118
C     -0.318657    0.057836   -0.575063
C      1.172654   -0.038736   -0.772465
C      1.931637   -0.008777    0.570853
C      3.414477    0.051241    0.319961
O      4.048169   -0.993833    0.013917
O      4.092602    1.266187    0.371064
N      1.618294   -1.174145    1.404180
F     -3.251308   -2.134911   -0.420874
O     -4.464988    0.352073    0.061234
H     -0.316847    2.202514   -0.290527
H     -2.750395    2.356449    0.072538
H     -0.669127   -2.067751   -0.777513
H      1.504092    0.817428   -1.401288
H      1.428641   -0.964320   -1.334541
H      1.639398    0.909441    1.127936
H      3.610173    2.130792    0.584963
H      1.671828   -2.046215    0.828198
H      0.636550   -1.087879    1.753872
H     -5.075657   -0.456133    0.046525
