35

C     -3.116612    2.265748   -0.572217
C     -1.901404    2.021716   -1.217370
C     -1.406881    0.717467   -1.309862
C     -2.124682   -0.354545   -0.752063
C     -3.347382   -0.100416   -0.107617
C     -3.839635    1.205395   -0.019185
C     -1.574261   -1.759322   -0.821117
C     -0.662156   -2.108995    0.373356
C     -1.455151   -2.204084    1.656340
O     -1.683194   -1.175744    2.347864
O     -1.995799   -3.422191    2.058956
N      0.444079   -1.148756    0.494197
C      1.536389   -1.124116   -0.440003
O      1.713608   -2.102198   -1.217045
C      2.465561    0.029995   -0.500391
C      3.756076   -0.131999   -1.038526
C      4.635277    0.952813   -1.111455
C      4.234920    2.211038   -0.657193
C      2.952968    2.387919   -0.132604
C      2.070026    1.306436   -0.055315
H     -3.498121    3.276099   -0.501185
H     -1.341754    2.843312   -1.645441
H     -0.464862    0.544067   -1.814346
H     -3.915280   -0.911898    0.330356
H     -4.780663    1.395546    0.480549
H     -2.411429   -2.490212   -0.872694
H     -1.001331   -1.883695   -1.765730
H     -0.228723   -3.116039    0.186537
H     -1.862489   -4.264199    1.511914
H      0.455913   -0.474798    1.291865
H      4.088693   -1.099314   -1.394272
H      5.627834    0.817472   -1.521430
H      4.916156    3.050016   -0.716410
H      2.639954    3.366178    0.208930
H      1.074354    1.481305    0.329479
