47

C      5.810692   -1.228753   -0.991019
C      6.144167   -0.249093    0.134261
C      5.232031   -0.432728    1.365100
C      4.135091    0.642141    1.493712
C      3.110055    0.669834    0.346987
C      2.210100   -0.577351    0.320963
C      1.243454   -0.591633   -0.876960
C      0.236743    0.576327   -0.924197
C     -0.666022    0.693165    0.315717
C     -1.470084   -0.561361    0.555162
C     -2.654760   -0.835930   -0.021327
C     -3.417304    0.110751   -0.915590
C     -4.300364    1.083107   -0.114740
C     -5.357777    0.398432    0.776132
C     -6.403730   -0.423601    0.006486
C     -7.194030    0.421205   -0.944715
O     -8.113933    1.166368   -0.515842
O     -6.891699    0.411678   -2.300518
H      5.936021   -2.274793   -0.638932
H      4.770955   -1.089678   -1.348571
H      6.500341   -1.060117   -1.844719
H      7.198291   -0.431126    0.438041
H      6.093932    0.792522   -0.250810
H      5.867617   -0.353448    2.274268
H      4.791995   -1.451689    1.398267
H      3.596932    0.488719    2.454641
H      4.622073    1.640005    1.555484
H      2.473562    1.566168    0.503195
H      3.623476    0.801867   -0.627715
H      1.646510   -0.661763    1.273747
H      2.839844   -1.486672    0.237960
H      1.839062   -0.579185   -1.815839
H      0.684865   -1.552460   -0.869318
H      0.779991    1.533877   -1.067561
H     -0.399218    0.444009   -1.824985
H     -1.332526    1.572181    0.202018
H     -0.045875    0.900266    1.212233
H     -1.037506   -1.311451    1.211026
H     -3.118368   -1.793212    0.199255
H     -2.722691    0.690306   -1.557112
H     -4.046510   -0.480910   -1.611797
H     -4.803101    1.776358   -0.822506
H     -3.654530    1.709865    0.535951
H     -5.883040    1.183477    1.363126
H     -4.852123   -0.262753    1.512126
H     -7.102928   -0.882179    0.738652
H     -5.919681   -1.259559   -0.539737
