43

C     -2.374126    3.876878   -1.107250
C     -2.586567    2.412714   -0.875613
O     -3.682512    1.896497   -1.223745
C     -1.529554    1.561898   -0.268774
C     -1.852723    0.633090    0.746857
C     -0.846636   -0.159584    1.310048
C      0.475025   -0.071519    0.863342
C      1.537531   -0.899512    1.553133
C      2.770338   -1.113266    0.703460
C      3.130375   -0.185432   -0.298366
C      4.310558   -0.400013   -1.054255
C      5.144211   -1.479333   -0.742702
C      4.806165   -2.371816    0.275166
C      3.620475   -2.190587    0.993416
O      5.654306   -3.439079    0.562534
O      4.671666    0.407575   -2.135062
C      2.243601    0.979978   -0.505511
O      2.721976    2.092153   -0.855067
C      0.815082    0.860496   -0.136453
C     -0.200572    1.641602   -0.741985
O      0.068306    2.458667   -1.845190
C     -3.221639    0.550135    1.301922
C     -4.021947   -0.520977    1.177012
C     -3.617781   -1.769040    0.427559
C     -3.675980   -1.538846   -1.049342
O     -4.788027   -1.472765   -1.636317
O     -2.503666   -1.369524   -1.775294
O     -5.302193   -0.447888    1.724063
H     -1.565918    4.263952   -0.451166
H     -2.104015    4.052027   -2.169339
H     -3.307198    4.433005   -0.877007
H     -1.090052   -0.834137    2.123280
H      1.837166   -0.383575    2.490041
H      1.108147   -1.888948    1.826256
H      6.052767   -1.636699   -1.310826
H      3.365885   -2.883844    1.786036
H      5.437812   -4.106048    1.294109
H      4.058296    1.096936   -2.547046
H      0.928535    2.422648   -2.374339
H     -3.618576    1.439050    1.777337
H     -4.305587   -2.601776    0.686830
H     -2.602059   -2.102499    0.720400
H     -5.960895   -1.212596    1.637846
