50

C      4.890046   -3.514598    1.214853
O      5.584156   -2.378798    0.708933
C      4.963967   -1.206994    0.246420
C      3.566016   -1.051686    0.243669
C      2.974725    0.126033   -0.235341
C      3.801075    1.170612   -0.688547
C      5.201817    1.029499   -0.691214
C      5.775433   -0.166536   -0.224714
O      7.160846   -0.337591   -0.218516
O      6.050242    2.053208   -1.144135
C      5.607693    3.310693   -1.644950
C      1.495273    0.239188   -0.206969
C      0.798030    1.061962   -1.002118
C     -0.670317    1.130894   -0.951696
O     -1.275505    1.902445   -1.744184
O     -1.384650    0.356572   -0.028189
C     -2.810942    0.319443    0.039634
C     -3.224865   -0.264755    1.402547
C     -4.761729   -0.423240    1.555427
C     -5.306912   -1.265167    0.373453
C     -4.909369   -0.722399   -1.014144
C     -3.383330   -0.501269   -1.140412
O     -2.697362   -1.718939   -1.311638
O     -5.594759    0.478659   -1.263332
C     -5.468960    0.921031    1.639970
O     -6.721056    0.984729    1.503837
O     -4.761109    2.078426    1.955905
O     -5.030358   -1.137253    2.738618
H      4.298157   -3.232561    2.111148
H      5.627860   -4.289787    1.506468
H      4.223782   -3.934973    0.432167
H      2.929974   -1.849491    0.604356
H      3.360517    2.100757   -1.013771
H      7.797013    0.379247   -0.546115
H      4.968051    3.161741   -2.540469
H      6.490702    3.915388   -1.936399
H      5.046251    3.858732   -0.859075
H      0.958730   -0.419755    0.466202
H      1.300772    1.682347   -1.731674
H     -3.200856    1.359396   -0.024245
H     -2.827975    0.388796    2.210269
H     -2.739236   -1.254885    1.543449
H     -6.415146   -1.338754    0.432771
H     -4.932139   -2.307559    0.470670
H     -5.221669   -1.480279   -1.770899
H     -3.211726    0.085788   -2.068322
H     -2.844359   -2.277900   -0.507728
H     -5.577313    0.624049   -2.245406
H     -5.233356    2.970567    2.039909
H     -4.666129   -0.615034    3.501951
