47

C      3.609240   -1.238343    0.492959
C      4.682423   -0.271817   -0.078962
C      4.251147    1.206294    0.066335
C      2.795806    1.440555   -0.434723
C      1.969213    0.135462   -0.430860
O      2.335484   -0.643078    0.690943
O      0.586234    0.474961   -0.340523
C     -0.511157   -0.408839   -0.299502
C     -1.783727    0.126435   -0.008859
O     -2.859198   -0.653881   -0.028053
C     -2.812890   -1.954327   -0.281733
C     -4.001621   -2.691428   -0.274148
C     -3.982097   -4.066132   -0.531636
C     -2.768689   -4.705642   -0.795239
C     -1.570440   -3.982948   -0.808655
C     -1.580507   -2.589704   -0.554002
C     -0.415653   -1.793723   -0.570817
O      0.696985   -2.314626   -0.846485
O     -0.386638   -4.664929   -1.073393
O     -5.162691   -4.805937   -0.528582
C     -1.975589    1.560005    0.311688
C     -3.073013    2.249771   -0.231113
C     -3.285965    3.596669    0.077976
C     -2.414819    4.266908    0.942266
C     -1.329689    3.581693    1.503586
C     -1.115455    2.234157    1.198618
O     -2.639249    5.608784    1.241104
O      2.784493    2.026132   -1.714216
O      4.399538    1.631290    1.401040
O      4.897969   -0.575033   -1.434115
H      3.504550   -2.138652   -0.152326
H      3.959814   -1.604898    1.481490
H      5.633608   -0.429319    0.482727
H      4.944131    1.831259   -0.539706
H      2.306388    2.163372    0.256823
H      2.138453   -0.416951   -1.385115
H     -4.941132   -2.193982   -0.065868
H     -2.755745   -5.770625   -0.991896
H     -6.060387   -4.370608   -0.350745
H     -3.759569    1.747906   -0.902687
H     -4.131064    4.119729   -0.352881
H     -0.658642    4.088985    2.184733
H     -0.293304    1.715835    1.675045
H     -2.027510    6.122169    1.864636
H      3.265430    1.414168   -2.330906
H      3.767808    1.110507    1.962454
H      5.767726   -0.167624   -1.687398
