14

C     -1.695881    0.895444    0.039563
C     -0.416981    1.455500    0.232217
C      0.674024    0.595233    0.155580
N      1.978532    0.871188    0.298907
N      2.593587   -0.297794    0.132515
N      1.750129   -1.299315   -0.108392
C      0.534151   -0.733960   -0.093855
C     -0.709701   -1.326137   -0.289788
C     -1.841599   -0.489270   -0.220302
H     -2.572416    1.528065    0.090593
H     -0.289422    2.511532    0.431559
H      3.629137   -0.416686    0.185397
H     -0.804799   -2.385899   -0.487463
H     -2.828762   -0.907901   -0.366531
