19

C      3.159515   -0.231322    0.309349
C      1.677943   -0.167699    0.133018
C      0.770213   -1.081082    0.663476
C     -0.468960   -0.590650    0.312831
C     -1.746031   -1.083826    0.572226
C     -2.843652   -0.348005    0.088470
C     -2.640437    0.850613   -0.631834
C     -1.337760    1.324253   -0.874937
C     -0.270299    0.572324   -0.385963
N      1.039988    0.846341   -0.497542
H      3.493666   -1.289043    0.359812
H      3.665188    0.262496   -0.546731
H      3.442136    0.287112    1.248911
H      0.988555   -1.973796    1.235116
H     -1.890870   -2.001495    1.127705
H     -3.849987   -0.701851    0.270805
H     -3.492120    1.409063   -0.997804
H     -1.171621    2.242584   -1.423106
H      1.474532    1.673981   -0.963802
