17

C      3.270887   -0.172938   -0.047418
C      1.783891   -0.070516   -0.026876
N      1.080215    0.689803   -0.907567
C     -0.186355    0.453095   -0.526079
C     -1.357310    0.971266   -1.074312
C     -2.579544    0.570542   -0.500092
C     -2.597194   -0.327308    0.593154
C     -1.392847   -0.831509    1.120610
C     -0.206411   -0.411444    0.526137
O      1.021854   -0.733780    0.827879
H      3.714283    0.816428   -0.285907
H      3.579754   -0.909355   -0.817839
H      3.641008   -0.504733    0.945140
H     -1.330071    1.656948   -1.911224
H     -3.510850    0.951814   -0.898144
H     -3.541791   -0.628909    1.026641
H     -1.389519   -1.519404    1.955896
