35

C      1.392876   -1.526681   -1.241492
C     -0.067238   -1.375185   -0.770203
C     -0.441372    0.121085   -0.709171
O      0.467609    0.791960    0.165966
C      1.836592    0.505433    0.189897
C      2.693026    1.340485    0.911970
C      4.065462    1.087954    0.940451
C      4.586652   -0.002087    0.233833
C      3.743226   -0.849024   -0.494799
C      2.346317   -0.621349   -0.489981
O      4.325199   -1.893972   -1.215934
O      4.904309    1.930202    1.666872
C     -1.869457    0.426866   -0.277734
C     -2.880961   -0.555211   -0.196300
C     -4.188528   -0.206781    0.173706
C     -4.505554    1.127329    0.450759
C     -3.516301    2.111580    0.351317
C     -2.214196    1.765934   -0.016855
O     -5.805811    1.467491    0.819761
O     -5.179423   -1.182997    0.265232
O     -0.219501   -1.954156    0.501884
H      1.456327   -1.284434   -2.324521
H      1.685746   -2.589747   -1.107671
H     -0.720184   -1.888855   -1.513669
H     -0.313333    0.543877   -1.730639
H      2.290488    2.191803    1.446600
H      5.653623   -0.187287    0.240309
H      3.801853   -2.505770   -1.828084
H      5.905104    1.775990    1.705931
H     -2.675569   -1.592699   -0.414004
H     -3.756270    3.147438    0.555032
H     -1.470416    2.549043   -0.099972
H     -6.065158    2.425350    1.025102
H     -4.983843   -2.158130    0.070908
H     -0.281296   -2.935454    0.364664
