41

C     -1.033243    2.061934   -2.690897
C     -0.001681    2.008447   -1.841096
C     -0.100610    2.696772   -0.498712
C     -0.405695    1.696549    0.580978
C     -1.720351    1.204873    0.734563
C     -1.954822    0.271225    1.738528
C     -0.968485   -0.167278    2.559921
C      0.341899    0.283489    2.441824
C      0.625367    1.221467    1.432155
O     -1.486232   -1.090662    3.447844
C     -2.883362   -1.245154    3.163345
O     -3.140316   -0.356074    2.067637
C      1.214303    1.230183   -2.190802
C      2.423278    1.791974   -2.064516
C      1.104493   -0.220537   -2.605000
C      0.957226   -1.113435   -1.392194
C     -0.296383   -1.607945   -0.944768
C     -0.350242   -2.441937    0.178774
C      0.808408   -2.763833    0.888370
C      2.042334   -2.260925    0.465154
C      2.116881   -1.445481   -0.665591
O      0.721372   -3.573876    2.018970
O     -1.505968   -1.297068   -1.570491
H     -0.985008    1.585858   -3.661013
H     -1.936890    2.597490   -2.435830
H     -0.893532    3.474448   -0.510328
H      0.840900    3.237830   -0.266623
H     -2.526070    1.532567    0.090496
H      1.121062   -0.086033    3.095183
H      1.640418    1.576050    1.311997
H     -3.490287   -0.952215    4.046456
H     -3.098496   -2.290510    2.864884
H      3.327023    1.231632   -2.273650
H      2.534509    2.828990   -1.773484
H      2.013218   -0.523037   -3.169708
H      0.283038   -0.369432   -3.332091
H     -1.306040   -2.822146    0.517527
H      2.943225   -2.501162    1.013874
H      3.082770   -1.068817   -0.977683
H      1.542004   -3.808266    2.563549
H     -1.600014   -0.670253   -2.357552
