17

C     -1.754861   -1.234774    0.026499
C     -0.403845   -0.575480   -0.039213
C      0.733702   -1.359531   -0.302847
C      1.999508   -0.773587   -0.369359
C      2.145774    0.599494   -0.174001
C      1.026663    1.391806    0.088621
C     -0.253390    0.818951    0.158943
N     -1.379641    1.664692    0.430764
H     -2.422333   -0.801948   -0.748004
H     -2.200742   -1.078691    1.031257
H     -1.686959   -2.329091   -0.152166
H      0.643291   -2.427628   -0.457723
H      2.868665   -1.385780   -0.572833
H      3.128040    1.051188   -0.226081
H      1.156759    2.456392    0.238007
H     -1.248390    2.690966    0.574039
H     -2.352240    1.293022    0.494097
