17

C      1.934481   -1.051241    0.344339
C      0.646202   -0.307245    0.124350
C      0.546978    1.078376    0.389466
C     -0.667249    1.740562    0.173833
C     -1.780474    1.044133   -0.300662
C     -1.692097   -0.324173   -0.565284
C     -0.481928   -0.997874   -0.353285
O     -2.811210   -1.005820   -1.038370
O      1.630484    1.820100    0.864857
H      2.732577   -0.617019   -0.293799
H      1.835990   -2.127374    0.086935
H      2.232252   -0.979128    1.411514
H     -0.747424    2.801301    0.375552
H     -2.713478    1.568793   -0.462991
H     -0.423888   -2.059280   -0.561638
H     -2.780973   -1.998398   -1.240271
H      2.539756    1.414288    1.045454
