45

C     -1.054262    0.821014   -1.927703
C     -1.557133   -0.391383   -1.133468
C     -3.055760   -0.659047   -1.397814
C     -3.839067   -0.208959   -0.129438
C     -2.754334    0.003276    0.884643
C     -2.909174    0.323614    2.242216
C     -1.768405    0.471671    3.040404
C     -0.490244    0.305474    2.487232
C     -0.337782    0.012472    1.117991
C     -1.496698   -0.130634    0.333384
N      0.961944   -0.218167    0.549986
C      2.107692    0.599910    0.839054
O      1.983395    1.626545    1.560445
C      3.450775    0.251874    0.333371
C      4.638729    0.520207    0.984569
N      5.650212    0.064387    0.224213
N      5.177773   -0.486454   -0.881954
C      3.834459   -0.369106   -0.854569
C      2.958732   -0.839283   -1.974220
F      3.642295   -0.750059   -3.173136
F      2.597390   -2.155968   -1.759047
C      7.060814    0.079956    0.585268
F     -4.138419    0.489931    2.789606
C     -4.592634    1.108771   -0.389471
C     -4.821114   -1.307746    0.321200
H     -1.123579    0.613139   -3.016403
H      0.006332    1.034153   -1.683779
H     -1.656197    1.725074   -1.695360
H     -0.953129   -1.288058   -1.393884
H     -3.183659   -1.750888   -1.573756
H     -3.418116   -0.149109   -2.318634
H     -1.872633    0.703040    4.092627
H      0.374420    0.382132    3.133239
H      1.065230   -1.034295   -0.088408
H      4.755217    0.993796    1.951479
H      2.051142   -0.207848   -2.047476
H      7.281490   -0.775674    1.257050
H      7.688232   -0.001936   -0.327466
H      7.310685    1.029257    1.105076
H     -5.344500    0.970177   -1.195810
H     -5.124087    1.446297    0.525546
H     -3.889427    1.910941   -0.699144
H     -5.414580   -0.980001    1.199975
H     -5.529667   -1.547348   -0.500632
H     -4.272358   -2.235146    0.594458
