13

C      0.238954    1.311783    0.547250
C      0.453205   -0.117055    0.108711
C     -0.530833   -0.839856   -0.475827
C     -1.907013   -0.379348   -0.768456
O     -2.301442    0.781856   -0.485126
O     -2.792582   -1.259548   -1.376511
C      1.786389   -0.739786    0.329215
O      2.009963   -1.929813   -0.021086
O      2.813195   -0.018593    0.927432
H     -0.568303    1.358116    1.308211
H      1.147468    1.751751    1.005779
H     -0.025097    1.941788   -0.328104
H     -0.323904   -1.861294   -0.771489
