25

C      3.430123    0.356126    1.405154
C      2.112640   -0.310991    1.180435
O      1.448173   -0.727322    2.167939
N      1.597780   -0.447479   -0.151257
C      0.280556   -1.035919   -0.418579
C     -0.825167   -0.084957   -0.014671
C     -1.948685   -0.566479    0.680533
C     -2.983873    0.302370    1.039340
C     -2.912111    1.655889    0.700911
C     -1.806605    2.142948   -0.000601
C     -0.768924    1.278469   -0.361879
C      0.144068   -1.400890   -1.870757
O      0.307907   -0.529651   -2.767546
O     -0.182896   -2.705760   -2.226803
H      4.194781   -0.091116    0.736261
H      3.757848    0.229031    2.458861
H      3.337909    1.439417    1.182294
H      2.162599   -0.057225   -0.940266
H      0.199590   -1.978179    0.168544
H     -2.024008   -1.613781    0.945503
H     -3.843533   -0.074719    1.578126
H     -3.714897    2.326481    0.978929
H     -1.754667    3.190692   -0.267079
H      0.077133    1.671616   -0.911436
H     -0.285741   -2.968569   -3.199698
