14

C      0.634446   -0.371757    0.038798
C      1.791807    0.210079   -0.287700
C      3.073505   -0.508158   -0.219652
O      4.136351    0.085848   -0.538304
O      3.130450   -1.835145    0.191708
C     -0.634445    0.371763   -0.038799
C     -1.791805   -0.210077    0.287699
C     -3.073506    0.508154    0.219652
O     -4.136349   -0.085858    0.538303
O     -3.130457    1.835143   -0.191704
H      0.619808   -1.405211    0.366452
H      1.801687    1.243751   -0.614835
H     -0.619808    1.405218   -0.366451
H     -1.801683   -1.243749    0.614833
