20

C      3.052501    0.203756   -0.112321
C      1.969170   -0.636279    0.067726
N      0.927063   -0.141181   -0.631824
O      1.299577    0.957594   -1.217590
C      2.557297    1.192737   -0.937500
O      3.203585    2.185280   -1.362686
C     -0.428270   -0.682099   -0.672060
C     -1.235092   -0.224922    0.557253
C     -1.368357    1.275405    0.582959
O     -2.051904    1.871963   -0.291055
O     -0.714616    2.012751    1.562143
N     -2.559568   -0.856934    0.569871
H      4.046913    0.111221    0.303695
H      1.941902   -1.533937    0.671802
H     -0.930928   -0.351095   -1.607151
H     -0.376794   -1.792702   -0.693349
H     -0.685818   -0.544398    1.471905
H     -3.098524   -0.534888    1.406867
H     -2.454734   -1.896051    0.628714
H     -3.093402   -0.616222   -0.297400
