47

C      3.661718   -0.668923   -2.500859
C      3.369595    0.066463   -1.193482
C      4.408575   -0.302367   -0.102051
C      3.815620   -0.126544    1.314220
C      2.717066    0.945638    1.318491
C      1.614999    0.601369    0.268921
O      2.073706   -0.283564   -0.748981
O      0.528473   -0.027097    0.933812
C     -0.730983    0.349142    0.395859
C     -1.833226   -0.010722    1.422191
C     -3.234490    0.168665    0.801070
O     -3.354220   -0.626516   -0.369162
C     -2.475755   -0.159439   -1.378237
C     -0.998167   -0.360038   -0.955361
O     -0.641729   -1.721239   -0.894492
C     -2.799644   -0.859012   -2.709056
O     -2.758814   -2.255697   -2.581702
O     -4.196720   -0.256534    1.747778
C     -5.478080    0.205189    1.378404
N     -1.717254    0.809067    2.632547
O      2.159280    1.066116    2.602796
O      5.582588    0.456296   -0.257696
H      2.925462   -0.363841   -3.274560
H      4.680963   -0.417200   -2.863964
H      3.587032   -1.767910   -2.355227
H      3.416513    1.158607   -1.419854
H      4.688477   -1.374366   -0.204619
H      4.616847    0.141210    2.037414
H      3.371818   -1.090769    1.648865
H      3.179503    1.920138    1.031342
H      1.318561    1.566236   -0.209006
H     -0.792636    1.451699    0.234594
H     -1.720208   -1.078042    1.717157
H     -3.374143    1.254352    0.565146
H     -2.642947    0.928805   -1.560941
H     -0.359786    0.119865   -1.728626
H     -1.264038   -2.176176   -0.270950
H     -2.064229   -0.548576   -3.481714
H     -3.805094   -0.535644   -3.064448
H     -3.619348   -2.531798   -2.171014
H     -5.765443   -0.150572    0.364079
H     -6.219761   -0.199448    2.097144
H     -5.531682    1.315003    1.430367
H     -0.801796    0.604113    3.094762
H     -1.718450    1.822529    2.372540
H      2.830210    1.534319    3.165480
H      5.351638    1.407214   -0.089697
