43

C     -2.729601    2.550422   -0.510680
C     -2.547491    1.034984   -0.336985
C     -3.298526    0.505839    0.913844
C     -2.641437   -0.789040    1.461705
C     -1.917107   -1.568350    0.344193
C     -0.924891   -0.647494   -0.433845
O     -1.170240    0.739246   -0.220371
O      0.388401   -0.953853   -0.001230
C      1.380262   -0.316666   -0.797187
C      2.286999   -1.414907   -1.410028
C      3.340704   -0.847745   -2.325883
O      4.518674   -1.121635   -2.160079
O      1.509805   -2.347270   -2.119327
C      2.116818    0.737698    0.078676
C      2.799445    0.169022    1.358903
C      4.159755   -0.418124    1.098916
O      4.393608   -1.622604    1.384077
O      5.188289    0.376507    0.606622
O      2.947271    1.192589    2.308567
O      3.017358    1.483027   -0.701906
O     -2.870603   -2.109860   -0.534586
O     -1.717936   -0.446906    2.466075
O     -4.661983    0.306804    0.629464
O     -2.151456    3.258469    0.554534
H     -2.279978    2.873243   -1.477780
H     -3.813461    2.790618   -0.553880
H     -2.964630    0.562529   -1.258568
H     -3.249700    1.269058    1.721742
H     -3.434082   -1.436757    1.906261
H     -1.359814   -2.410561    0.820049
H     -1.016895   -0.874638   -1.523450
H      0.946170    0.251256   -1.658208
H      2.778318   -1.973113   -0.588894
H      3.052131   -0.209889   -3.155444
H      1.049918   -1.862482   -2.854821
H      1.313092    1.430715    0.423404
H      2.153660   -0.630070    1.793322
H      2.053772    1.342091    2.715947
H      3.205124    2.322379   -0.205685
H     -2.410409   -2.816555   -1.058809
H     -1.532934   -1.274203    2.983532
H     -4.729996   -0.407082   -0.055830
H     -1.176406    3.303308    0.373643
