39

C      2.444019   -1.385917   -1.635025
N      3.215902   -1.166557   -0.522371
C      2.714549   -0.536032    0.583954
C      1.387586   -0.122017    0.537047
C      0.647769   -0.345483   -0.573080
N      1.140569   -0.975342   -1.666765
N     -0.592372    0.122621   -0.388187
C     -0.567058    0.612528    0.879390
N      0.646816    0.485350    1.483389
C     -1.742810    0.002657   -1.286843
C     -2.551005   -1.257770   -0.954597
C     -3.767512   -0.704827   -0.248038
C     -3.867314    0.702680   -0.820217
O     -2.568546    1.142675   -1.151615
C     -4.516831    1.675610    0.171754
O     -4.688789    2.934740   -0.420649
O     -4.929777   -1.444699   -0.519520
O     -2.889842   -1.972600   -2.121524
N      3.526511   -0.318327    1.747193
C      4.928785   -0.721933    1.809857
C      5.766109    0.179764    0.955848
O      6.301203   -0.266768   -0.093644
N      5.946373    1.548885    1.315904
H      2.869261   -1.889077   -2.492347
H     -1.427274    1.047048    1.371245
H     -1.375662   -0.039054   -2.336532
H     -1.991833   -1.940762   -0.277114
H     -3.573939   -0.666985    0.850814
H     -4.478512    0.685565   -1.751509
H     -3.901158    1.761888    1.096588
H     -5.516243    1.288188    0.463866
H     -3.809608    3.393784   -0.376211
H     -4.852187   -2.287311   -0.000501
H     -3.376514   -1.358735   -2.732405
H      3.104189    0.133990    2.589560
H      5.032971   -1.781085    1.488101
H      5.287058   -0.651140    2.859238
H      6.523732    2.180120    0.717260
H      5.501384    1.934326    2.178308
