20

C      1.968081   -0.977305    0.297550
C      1.198073   -0.000472   -0.304774
C      1.910778    1.161158   -0.091877
O      1.572304    2.317792   -0.456046
O      3.010463    0.886098    0.565067
N      3.068886   -0.390699    0.809460
C     -0.148274   -0.163760   -0.948976
C     -1.276758   -0.233671    0.099776
C     -1.392981    1.063973    0.857832
O     -1.775146    2.113299    0.274834
O     -1.055782    1.112784    2.204583
N     -2.554899   -0.563956   -0.541794
H      1.739979   -2.032729    0.368347
H      3.841708   -0.865387    1.326061
H     -0.137806   -1.103258   -1.542822
H     -0.330945    0.674614   -1.656273
H     -1.032543   -1.043396    0.825024
H     -2.800869    0.149697   -1.266574
H     -2.490003   -1.503777   -0.996486
H     -3.314266   -0.601003    0.177089
