17

C      2.670936   -0.127828   -0.126909
C      1.701161    0.350517    0.885301
O      2.314810    1.230791   -0.028189
C      0.251552    0.136945    0.563056
C     -0.266688   -1.165038    0.481559
C     -1.624575   -1.365618    0.213463
C     -2.473415   -0.268797    0.038356
C     -1.966494    1.030346    0.135896
C     -0.609051    1.234746    0.403665
H      3.706972   -0.298520    0.231937
H      2.267317   -0.580789   -1.057502
H      2.045490    0.516876    1.927254
H      0.380822   -2.021601    0.623302
H     -2.019373   -2.371049    0.144799
H     -3.524335   -0.425449   -0.167760
H     -2.626028    1.878893    0.007594
H     -0.229099    2.245574    0.486123
