21

C     -1.621249   -1.200458   -0.887927
C     -1.142878    0.197058   -0.470703
C     -2.179776    0.894484    0.368360
O     -2.469548    0.463078    1.517229
O     -2.833817    2.015474   -0.133663
N      0.132885    0.112394    0.248893
C      1.382467   -0.089042   -0.427158
O      1.428556   -0.128017   -1.686647
C      2.649917   -0.209724    0.360755
N      3.082991    1.108884    0.808574
O     -1.727035   -2.038294    0.230939
H     -0.896575   -1.636165   -1.611243
H     -2.609237   -1.119740   -1.395307
H     -0.997540    0.804025   -1.391825
H     -3.538188    2.494884    0.414268
H      0.140627    0.161314    1.293514
H      2.468541   -0.860248    1.243596
H      3.444686   -0.682514   -0.258955
H      3.925446    0.977932    1.414077
H      3.400212    1.650288   -0.028713
H     -2.040484   -2.915613   -0.110916
