46

C      2.902220   -2.770126    0.842744
C      2.533418   -1.486777    0.091283
C      3.690448   -0.461632    0.123764
C      3.265196    0.799085   -0.644958
C      1.897137    1.299687   -0.131306
C      0.871319    0.142260   -0.109668
O      1.367427   -0.929217    0.675551
O     -0.321720    0.605443    0.504888
C     -1.378766    0.815475   -0.420817
C     -2.224716    2.014069    0.088054
C     -3.435399    2.340255   -0.805366
O     -3.989991    3.577235   -0.446517
O     -2.637773    1.801852    1.413363
C     -2.149138   -0.525112   -0.677312
C     -2.945592   -1.082931    0.529981
C     -2.046121   -1.405652    1.692757
O     -2.126234   -0.735129    2.755512
O     -1.122816   -2.445392    1.613843
O     -3.605066   -2.265203    0.153795
O     -3.016729   -0.381623   -1.773707
O      1.430198    2.371653   -0.912278
O      4.240948    1.796817   -0.486366
O      4.004441   -0.117616    1.451845
O      1.883702   -3.718071    0.680794
H      3.034920   -2.550845    1.926007
H      3.855156   -3.178996    0.437413
H      2.341091   -1.782303   -0.967744
H      4.583194   -0.893008   -0.389961
H      3.178985    0.527800   -1.724625
H      2.024717    1.669220    0.910413
H      0.704101   -0.221336   -1.154925
H     -0.979276    1.157038   -1.405898
H     -1.543323    2.898409    0.063628
H     -4.218552    1.564525   -0.678678
H     -3.133400    2.357513   -1.877658
H     -3.394256    4.276755   -0.822805
H     -2.838043    2.692575    1.803567
H     -1.394897   -1.301624   -0.944636
H     -3.705503   -0.338351    0.857893
H     -1.035038   -3.011000    0.778339
H     -4.445480   -2.000516   -0.304387
H     -2.453265   -0.351538   -2.590975
H      1.330316    2.043808   -1.844250
H      4.104240    2.452019   -1.219599
H      4.727683   -0.729171    1.749091
H      2.170238   -4.520326    1.189913
