35

C     -0.950962    2.266199    1.104960
C     -0.447093    1.832958   -0.066103
C      0.971661    2.214470   -0.429396
C      1.990072    1.224474    0.161298
C      1.704252   -0.222892   -0.293518
C      0.433162   -0.820106    0.397990
C     -0.831170   -0.693462   -0.491459
C     -1.146166    0.766838   -0.922316
C     -2.681862    0.892283   -0.923165
C     -3.213828   -0.167601    0.036076
C     -2.098691   -1.145958    0.176731
C     -2.288835   -2.359668    0.712601
O      0.763438   -2.177093    0.682446
C      2.123544   -2.378082    0.593576
O      2.689847   -3.460374    0.899636
C      2.779112   -1.204090    0.068612
C      4.078081   -1.103457   -0.214504
H     -0.387894    2.951730    1.731151
H     -1.914593    1.940049    1.472464
H      1.082951    2.241134   -1.534982
H      1.203564    3.239242   -0.064453
H      1.986885    1.291330    1.271508
H      2.997969    1.535404   -0.185583
H      1.597623   -0.250317   -1.401777
H      0.251414   -0.321836    1.376733
H     -0.687834   -1.317736   -1.402065
H     -0.798365    0.902140   -1.971051
H     -3.038995    1.909248   -0.651759
H     -3.060103    0.668466   -1.945843
H     -3.462238    0.268370    1.026396
H     -4.118165   -0.653991   -0.391246
H     -1.504525   -3.106080    0.722049
H     -3.254657   -2.630331    1.128194
H      4.473517   -0.221387   -0.699461
H      4.758887   -1.909873    0.026258
