23

C     -1.990537    2.397124    1.003242
O     -0.933567    1.524805    0.616567
C     -1.112223    0.214454    0.140366
C     -2.396464   -0.349740   -0.001266
C     -2.549129   -1.651786   -0.479294
C     -1.428730   -2.409307   -0.814608
C     -0.149780   -1.866914   -0.679247
C      0.024095   -0.547786   -0.212435
C      1.379201    0.038387   -0.045279
C      2.436858   -0.332173   -0.779469
C      3.763751    0.276653   -0.596672
O      4.720221   -0.092299   -1.328555
O      3.975349    1.252356    0.374409
H     -2.564045    1.953009    1.844081
H     -1.558987    3.362242    1.338834
H     -2.662132    2.589509    0.140056
H     -3.284789    0.210747    0.255329
H     -3.539149   -2.076781   -0.583928
H     -1.550638   -3.423475   -1.172821
H      0.699108   -2.493721   -0.916578
H      1.499424    0.833436    0.680876
H      2.332971   -1.079726   -1.554909
H      4.889193    1.670986    0.500348
