22

C     -2.634995   -1.397035   -1.349216
C     -1.801942   -0.204998   -0.886608
C     -1.924707   -0.009100    0.577083
C     -0.740641   -0.090832    1.119808
C      0.267029   -0.359966    0.060249
O     -0.433524   -0.433013   -1.170230
C      1.332137    0.752404   -0.008344
C      2.136844    0.820739    1.265439
O      2.164720    1.886950    1.936567
O      2.854363   -0.290145    1.700262
N      2.214737    0.529436   -1.155680
H     -3.709724   -1.222993   -1.127559
H     -2.302629   -2.325877   -0.837219
H     -2.517520   -1.532052   -2.445186
H     -2.139069    0.714315   -1.412230
H     -2.843637    0.183578    1.121500
H     -0.540609    0.010413    2.181740
H      0.748588   -1.342832    0.257763
H      0.809920    1.725020   -0.159379
H      3.398717   -0.255479    2.553787
H      2.894648    1.322577   -1.215417
H      2.767292   -0.346953   -1.007130
