28

C     -3.359004   -2.245479    0.422056
C     -1.979783   -1.710083    0.172305
C     -1.772111   -0.330246    0.037408
C     -0.477730    0.184911   -0.158851
C      0.618228   -0.696876   -0.225031
C      0.402391   -2.080919   -0.092052
C     -0.883691   -2.579949    0.121152
O      1.900065   -0.169849   -0.451410
C      3.099828   -0.731981    0.003098
O      3.108215   -1.585529    0.931003
C      4.392641   -0.224735   -0.538614
N     -0.267725    1.597738   -0.334186
C     -0.989293    2.608394    0.386515
O     -1.697827    2.304421    1.384019
C     -0.828287    4.045900    0.013216
H     -3.455737   -3.281650    0.033320
H     -4.120785   -1.616743   -0.086291
H     -3.561405   -2.248200    1.513404
H     -2.623769    0.337798    0.058498
H      1.221540   -2.781398   -0.178741
H     -1.026205   -3.648181    0.229681
H      5.146714   -1.039806   -0.554734
H      4.247571    0.149413   -1.573674
H      4.761548    0.604181    0.100400
H      0.503692    1.911057   -0.965967
H      0.114208    4.437329    0.449146
H     -1.683075    4.642957    0.395967
H     -0.790215    4.147523   -1.091638
