36

C     -3.253348    2.634192    0.203635
C     -2.388427    1.413635    0.046694
C     -1.151481    1.412806    0.590906
C     -0.255506    0.195470    0.544416
C     -0.683466   -0.719418   -0.651805
C      0.196638   -1.999195   -0.787012
C      1.635985   -1.574183   -0.768153
C      2.804042   -2.216342   -1.165960
N      3.883225   -1.456253   -0.834605
C      3.392511   -0.360651   -0.220451
C      4.081006    0.695734    0.373296
C      3.316242    1.682390    1.036936
C      1.900253    1.588114    1.095247
C      1.232634    0.520559    0.448861
C      2.038870   -0.421256   -0.170112
N     -2.138244   -0.996089   -0.636587
C     -2.887150    0.267242   -0.826926
C     -2.617036   -1.708624    0.564896
H     -2.724589    3.526320   -0.194131
H     -4.209722    2.519336   -0.348879
H     -3.483666    2.794397    1.278056
H     -0.855629    2.259266    1.201910
H     -0.390859   -0.360553    1.495904
H     -0.471972   -0.141004   -1.584532
H     -0.032156   -2.523286   -1.739284
H      0.039199   -2.693086    0.062073
H      2.864857   -3.184449   -1.645232
H      4.887706   -1.693158   -0.993070
H      5.161704    0.746579    0.348788
H      3.818201    2.505151    1.529080
H      1.351367    2.329894    1.657130
H     -3.973237    0.104151   -0.647104
H     -2.795969    0.579188   -1.889666
H     -2.562855   -1.073357    1.474369
H     -3.676909   -2.007910    0.419725
H     -2.052220   -2.645611    0.731586
