28

C     -4.800799    0.776722    1.363539
C     -3.989253   -0.086114    0.435452
C     -4.563123   -1.131573   -0.170063
C     -2.544694    0.183092    0.261250
O     -2.002623    1.127670    0.898735
O     -1.782667   -0.604257   -0.612393
C     -0.377444   -0.441883   -0.793503
C      0.387921   -1.024686    0.395560
O      1.794252   -0.950165    0.170797
C      2.531886    0.236345    0.280127
O      1.964880    1.303334    0.644130
C      3.980393    0.241209   -0.022206
C      4.613175   -0.895249   -0.333717
C      4.760923    1.522413    0.095111
H     -5.889008    0.692660    1.153549
H     -4.612519    0.468266    2.413135
H     -4.516470    1.843305    1.242828
H     -3.999893   -1.787353   -0.821731
H     -5.612669   -1.354056   -0.022172
H     -0.131772    0.632692   -0.934786
H     -0.076688   -0.985661   -1.713866
H      0.107040   -2.092626    0.513165
H      0.122411   -0.495125    1.335824
H      4.084246   -1.837396   -0.401011
H      5.678877   -0.904986   -0.526308
H      5.721877    1.468838   -0.460817
H      4.176000    2.367637   -0.325008
H      4.975741    1.726947    1.164808
