31

C     -3.051793   -1.551596    1.303596
O     -2.711729   -0.313028    0.688060
C     -1.418988    0.063964    0.289708
C     -0.321254   -0.796150    0.492124
C      0.972768   -0.426477    0.090287
C      1.169900    0.830571   -0.491073
C      0.090137    1.704629   -0.703636
C     -1.206612    1.326772   -0.320564
O     -2.234683    2.255986   -0.572990
C     -3.618265    2.092779   -0.281691
O      0.264143    2.966140   -1.296906
C      1.513313    3.489312   -1.737251
C      2.150716   -1.305457    0.298045
C      2.072113   -2.638735    0.405747
C      3.267023   -3.475564    0.597319
O      3.141384   -4.726834    0.669237
O      4.532196   -2.902691    0.701859
H     -4.144188   -1.571956    1.494699
H     -2.520927   -1.655089    2.273414
H     -2.793953   -2.396639    0.630815
H     -0.472288   -1.742736    0.987764
H      2.169766    1.119707   -0.787230
H     -4.028435    1.222621   -0.836040
H     -4.163019    3.000795   -0.611829
H     -3.770344    1.977225    0.811986
H      1.944203    2.836788   -2.525759
H      2.215941    3.572107   -0.881294
H      1.352415    4.500838   -2.162978
H      3.126905   -0.834389    0.314875
H      1.118943   -3.143751    0.325334
H      5.354614   -3.479142    0.834374
