11

C     -0.754130    0.564009    0.074080
C     -0.705110   -0.983897    0.059147
O      0.671455   -1.321702   -0.071445
C      1.418871   -0.169883   -0.133412
O      2.671755   -0.155138   -0.250114
N      0.629820    0.992414   -0.052071
H     -1.178547    0.937502    1.030507
H     -1.347554    0.949639   -0.782376
H     -1.105832   -1.401434    1.007407
H     -1.274715   -1.389306   -0.804161
H      0.973986    1.977797   -0.077563
