12

C      0.236708   -0.741912    0.414441
O      0.891861   -1.723003    0.857567
N      0.908124    0.488477    0.122928
N      2.290188    0.607478    0.327812
N     -1.173107   -0.874867    0.209296
N     -1.938226    0.192442   -0.282050
H      0.373582    1.307642   -0.244858
H      2.713860    0.882439   -0.587115
H      2.435627    1.406810    0.985162
H     -1.639867   -1.784207    0.429958
H     -2.688511    0.381546    0.420376
H     -2.410240   -0.142845   -1.152035
