31

C      2.969347   -1.306722    1.014375
C      2.743004    0.205776    0.839492
C      4.052115    0.888085    0.415311
C      1.581930    0.546939   -0.138779
C      1.753062   -0.115704   -1.482186
O      2.346192    0.489116   -2.413842
O      1.282607   -1.406440   -1.694979
N      0.280244    0.188588    0.439308
C     -0.958858    0.619173   -0.143962
O     -0.957025    1.315676   -1.196322
C     -2.265957    0.182387    0.461498
C     -2.821505   -1.080986   -0.242455
C     -4.128287   -0.675478   -0.943836
C     -4.328331    0.720462   -0.509333
O     -5.328552    1.418227   -0.821774
N     -3.275035    1.211329    0.287938
H      3.712405   -1.485684    1.820594
H      2.029058   -1.821297    1.299547
H      3.356770   -1.762179    0.078454
H      2.473697    0.620509    1.836716
H      4.406204    0.494797   -0.561151
H      4.840966    0.706768    1.176389
H      3.905352    1.985799    0.329508
H      1.584628    1.650015   -0.291188
H      0.237909   -0.353750    1.331374
H     -2.134162   -0.012426    1.548278
H     -2.103796   -1.506071   -0.979416
H     -3.035753   -1.864627    0.517116
H     -4.014966   -0.715556   -2.048424
H     -4.977537   -1.312192   -0.615105
H     -3.225724    2.175468    0.686856
