31

C     -2.611929   -1.048472   -0.993705
C     -3.341856   -0.488736    0.224503
C     -2.643532    0.831860    0.561300
N     -1.378566    0.803631   -0.161799
C     -1.255282   -0.357482   -1.028799
C     -0.414585    1.874275   -0.118613
O     -0.699340    2.950776    0.472582
C      0.945863    1.723167   -0.738930
N      1.725094    0.709346   -0.030529
C      3.008955    0.284894   -0.504184
O      3.507509    0.799947   -1.541503
C      3.745997   -0.812404    0.205120
N      3.227732   -2.120191   -0.191879
C     -2.421741    0.972427    2.042516
O     -1.558884    0.266178    2.629283
O     -3.196480    1.860399    2.777473
H     -3.182745   -0.796318   -1.914611
H     -2.499719   -2.152598   -0.926788
H     -4.419340   -0.325724    0.003689
H     -3.258151   -1.220736    1.059310
H     -3.253614    1.684637    0.189402
H     -1.014209   -0.047686   -2.068345
H     -0.462451   -1.031925   -0.639604
H      0.833081    1.434032   -1.804882
H      1.489736    2.692256   -0.704145
H      1.343026    0.270071    0.838619
H      3.633378   -0.682741    1.303966
H      4.830946   -0.752838   -0.034812
H      2.215371   -2.197510    0.060552
H      3.759687   -2.866457    0.311350
H      3.346049   -2.256077   -1.222214
