35

C     -3.270783    0.723253    1.443714
C     -4.754238    0.441568    1.562997
C     -4.971353   -0.805813    0.710935
N     -3.853302   -0.922994   -0.229754
C     -2.892520    0.140441    0.087595
C     -1.489239   -0.401642    0.099197
O     -1.279955   -1.581488    0.494043
N     -0.396206    0.431399   -0.319894
C      0.988927    0.104767   -0.114741
C      1.936559    0.503022   -1.069648
C      3.297961    0.217976   -0.885496
C      4.246338    0.601679   -1.846804
C      5.599884    0.311716   -1.651929
C      6.016522   -0.360355   -0.499700
C      5.082574   -0.746802    0.465916
C      3.720397   -0.462481    0.281715
C      2.774394   -0.838273    1.245268
C      1.420612   -0.550718    1.052105
O     -5.521646    1.525337    1.094592
H     -2.735989    0.197547    2.267374
H     -3.044752    1.810792    1.501326
H     -5.029388    0.244629    2.622292
H     -5.947705   -0.767040    0.176616
H     -4.974529   -1.704204    1.365160
H     -4.212450   -0.774836   -1.202741
H     -2.967238    0.948059   -0.677772
H     -0.619268    1.287232   -0.876883
H      1.607036    1.025587   -1.960439
H      3.941691    1.123617   -2.746134
H      6.327832    0.608883   -2.395776
H      7.066004   -0.581609   -0.354242
H      5.423700   -1.265634    1.353882
H      3.082348   -1.345854    2.151743
H      0.716419   -0.818363    1.828450
H     -5.288638    1.680604    0.141404
