41

C     -4.026846   -2.144101    1.313953
C     -2.615215   -1.993473    1.873924
C     -2.123701   -0.623289    1.400954
N     -3.021816   -0.235213    0.320518
C     -4.124798   -1.167185    0.149438
C     -2.896355    1.000453   -0.410886
O     -2.041939    1.856080   -0.053179
C     -3.738758    1.280112   -1.622036
N     -3.374987    0.370788   -2.702964
C     -0.694716   -0.687921    0.927207
O     -0.432943   -1.199972   -0.195928
N      0.364254   -0.240833    1.787084
C      1.711106   -0.003674    1.343556
C      1.979950    0.494406    0.055613
C      3.300857    0.739722   -0.349682
C      3.575581    1.228256   -1.636911
C      4.895435    1.469188   -2.029294
C      5.948188    1.227247   -1.142750
C      5.688359    0.744032    0.142909
C      4.367530    0.497828    0.549201
C      4.092700    0.022588    1.838820
C      2.774044   -0.217861    2.233029
H     -4.766285   -1.866068    2.097181
H     -4.222875   -3.187356    0.983557
H     -2.616509   -2.056812    2.983969
H     -1.981038   -2.815482    1.471606
H     -2.218893    0.115542    2.227420
H     -4.015605   -1.701131   -0.818998
H     -5.099029   -0.633656    0.183158
H     -4.811809    1.149705   -1.368100
H     -3.596870    2.333778   -1.952513
H     -2.413258    0.620756   -3.030612
H     -4.020450    0.555155   -3.504700
H      0.157660   -0.149071    2.807637
H      1.163993    0.714570   -0.621664
H      2.772239    1.421467   -2.337898
H      5.102859    1.844510   -3.023092
H      6.968020    1.416061   -1.452292
H      6.516731    0.564816    0.817980
H      4.896188   -0.160786    2.542302
H      2.579000   -0.583177    3.233582
