17

C     -2.686002   -0.535670   -0.221951
C     -1.693842    0.357991    0.460285
O     -2.126587    1.235613    1.256089
C     -0.230336    0.234219    0.222653
C      0.290410   -0.734657   -0.659742
C      1.669280   -0.835358   -0.869903
C      2.545225    0.025083   -0.205937
C      2.044600    0.989157    0.670514
C      0.667054    1.095275    0.885232
H     -3.720837   -0.280067    0.091075
H     -2.489041   -1.593994    0.049167
H     -2.611681   -0.410685   -1.322498
H     -0.359690   -1.417058   -1.190309
H      2.058973   -1.582507   -1.549299
H      3.611960   -0.055268   -0.370635
H      2.724638    1.655916    1.184912
H      0.305875    1.852010    1.570348
