17

C      0.010863    1.839468   -0.028323
C     -1.102591    0.996967    0.031997
C     -0.940376   -0.400588    0.010198
C      0.358959   -0.933053   -0.090813
C      1.476203   -0.087000   -0.150334
C      1.295981    1.301394   -0.116312
N      2.792372   -0.638538   -0.245092
C     -2.111157   -1.309812    0.068333
O     -2.008258   -2.489467   -0.361931
O     -3.332539   -0.902020    0.603666
H     -0.123721    2.913428   -0.013407
H     -2.085034    1.446758    0.069858
H      0.507250   -2.006039   -0.112955
H      2.150036    1.965346   -0.163011
H      3.630583   -0.017008   -0.289812
H      2.938675   -1.672354   -0.271324
H     -3.457245   -0.007484    1.059261
