16

C     -0.539353   -1.769019   -0.100924
C      0.698835   -1.120474   -0.128536
C      0.766214    0.284753   -0.172429
C     -0.432746    1.022026   -0.205542
C     -1.673017    0.368178   -0.176707
C     -1.721901   -1.027170   -0.122099
O     -2.860500    1.096253   -0.201895
C      2.070852    0.990032   -0.207282
O      2.133786    2.165789   -0.655540
O      3.241724    0.393275    0.259183
H     -0.581883   -2.850181   -0.069666
H      1.594862   -1.725368   -0.140788
H     -0.407941    2.104287   -0.243232
H     -2.676921   -1.536650   -0.101180
H     -2.860497    2.108830   -0.241494
H      3.248486   -0.504561    0.725168
