28

C     -4.462305    0.435075    1.094083
C     -3.458228    0.866189    1.959113
C     -2.117899    0.745928    1.590128
C     -1.766042    0.188603    0.345240
C     -2.785360   -0.251974   -0.533766
C     -4.131040   -0.119034   -0.143780
C     -2.464918   -0.832541   -1.862356
O     -1.448046   -0.442908   -2.495318
O     -3.276315   -1.808237   -2.439334
N     -0.387091    0.038043   -0.023736
N      0.566855    0.410597    0.731941
C      1.940347    0.256912    0.355487
C      2.309301   -0.316286   -0.875767
C      3.660116   -0.451045   -1.211702
C      4.653370   -0.015888   -0.323750
C      4.288181    0.553959    0.900256
C      2.938004    0.689644    1.238079
O      6.002050   -0.144987   -0.647576
H     -5.501306    0.536114    1.380346
H     -3.718834    1.295929    2.917789
H     -1.356176    1.085021    2.280396
H     -4.933030   -0.419839   -0.805343
H     -4.059640   -2.218229   -1.946267
H      1.557387   -0.658557   -1.575223
H      3.933555   -0.893290   -2.161269
H      5.051114    0.891860    1.590048
H      2.667199    1.132392    2.188502
H      6.298752   -0.553451   -1.526220
