21

C      4.059108    0.303214   -0.578401
O      2.659378    0.482805   -0.399453
C      1.790957   -0.578515   -0.120975
O      2.242676   -1.752870   -0.019326
C      0.343702   -0.321124    0.053825
C     -0.162649    0.983337   -0.058429
C     -1.528564    1.243742    0.104048
C     -2.414513    0.177002    0.385871
C     -1.911430   -1.126499    0.498470
C     -0.542664   -1.373146    0.333614
O     -2.783932   -2.177978    0.776154
O     -3.787749    0.367526    0.559387
O     -1.957285    2.566897   -0.022220
H      4.508844   -0.121871    0.343833
H      4.528858    1.286133   -0.787408
H      4.248639   -0.376060   -1.436387
H      0.502194    1.810879   -0.273780
H     -0.175968   -2.388143    0.424952
H     -2.454845   -3.132380    0.864336
H     -4.247063    1.264572    0.498410
H     -2.917695    2.862479    0.075970
