24

C      3.466861    0.064031    0.065077
C      3.064201   -1.285220    0.121511
C      1.701544   -1.621729    0.078296
C      0.770293   -0.587355   -0.019123
C      1.158491    0.739190   -0.073206
C      2.509955    1.088228   -0.034305
C     -0.025954    1.657773   -0.180798
C     -1.149296    0.655747   -0.186626
C     -2.519566    0.906088   -0.286136
C     -3.405213   -0.184809   -0.279251
C     -2.914023   -1.501650   -0.177448
C     -1.533204   -1.738822   -0.082985
C     -0.673979   -0.639603   -0.090215
O     -0.099777    2.483299    0.948999
H      4.519520    0.313156    0.097692
H      3.809102   -2.066643    0.197144
H      1.386783   -2.656200    0.118506
H      2.814923    2.125660   -0.079302
H      0.009759    2.242641   -1.127643
H     -2.892951    1.918634   -0.367000
H     -4.471013   -0.012423   -0.353882
H     -3.604428   -2.335047   -0.174176
H     -1.150187   -2.748069   -0.008555
H     -0.771842    3.183123    0.740007
