18

C      1.163907    0.763571   -0.137542
C      1.244400   -0.637256   -0.050239
C      0.061554   -1.382239    0.087472
C     -1.190015   -0.746654    0.138353
C     -1.248873    0.655063    0.049390
C     -0.077189    1.419359   -0.088776
N     -0.144497    2.855225   -0.179394
O     -1.243785    3.445906   -0.136869
O      1.003097    3.602744   -0.314661
N     -2.394420   -1.523751    0.279816
O     -3.510934   -0.966594    0.325888
O     -2.336044   -2.896001    0.366880
N      2.520608   -1.303014   -0.100954
O      3.576830   -0.648345   -0.223237
O      2.598754   -2.674379   -0.015446
H      2.070632    1.344437   -0.243777
H      0.115248   -2.460605    0.155301
H     -2.209274    1.152534    0.087796
