45

C      3.538396   -2.213296   -1.101517
C      2.172142   -1.594265   -0.845000
N      2.386853   -0.156253   -0.814563
C      3.798787    0.194871   -0.847503
C      4.562169   -1.130296   -0.737526
N      5.077995   -1.332281    0.622732
C      1.294872    0.777729   -0.680698
C      1.469956    2.169305   -0.812373
C      0.369821    3.016677   -0.668359
C     -0.903590    2.490051   -0.396226
C     -2.035357    3.312568   -0.256769
O     -1.918339    4.564434   -0.366633
C     -3.294739    2.733541    0.002248
C     -3.378210    1.334730    0.118211
N     -2.271845    0.544009   -0.009015
C     -1.044580    1.093614   -0.269917
N      0.048762    0.295486   -0.422713
C     -2.424493   -0.882438    0.124883
C     -1.787761   -1.576237    1.170389
C     -1.933568   -2.962662    1.283761
C     -2.717320   -3.663786    0.362635
C     -3.360062   -2.979047   -0.672686
C     -3.216741   -1.593497   -0.791250
F     -2.856862   -5.007627    0.475570
F     -1.039976   -0.907084    2.083698
C     -4.524466    3.557667    0.154764
O     -5.634740    3.005240    0.383989
O     -4.473323    4.945136    0.047903
F      2.676826    2.716583   -1.098661
H      3.633170   -2.456376   -2.182959
H      3.674984   -3.148259   -0.515344
H      1.770856   -1.932318    0.135409
H      1.462075   -1.864485   -1.656786
H      4.034389    0.686886   -1.815945
H      4.048757    0.879030   -0.007349
H      5.411927   -1.147195   -1.457358
H      5.576772   -2.249988    0.677836
H      4.297933   -1.320623    1.320488
H      5.761946   -0.576077    0.856025
H      0.517330    4.084320   -0.777306
H     -4.338049    0.872734    0.322736
H     -1.441212   -3.493498    2.088461
H     -3.968326   -3.521317   -1.385105
H     -3.713126   -1.072536   -1.600312
H     -5.310031    5.506830    0.151550
