16

C     -1.341343    0.265455    1.608207
C     -1.354166    0.311603    0.080636
C     -0.537185   -0.826836   -0.545677
C      0.936070   -0.673375   -0.281685
O      1.468078   -1.336400    0.648599
C      1.763068    0.256169   -1.067393
O      1.253034    0.934647   -1.999096
O      3.118394    0.387411   -0.780270
H     -0.313112    0.426861    1.994816
H     -1.995774    1.068330    2.008193
H     -1.721161   -0.714032    1.969002
H     -2.406824    0.223724   -0.265146
H     -0.967218    1.295181   -0.263870
H     -0.892240   -1.804806   -0.152678
H     -0.712520   -0.836507   -1.643072
H      3.702899    1.022576   -1.310565
