18

C     -2.918666    0.190774    0.612543
C     -1.984531    0.004071   -0.545481
O     -2.478926   -0.127739   -1.698305
C     -0.507709   -0.028716   -0.367390
C      0.333197   -0.206400   -1.483411
C      1.722466   -0.239137   -1.330364
C      2.295069   -0.095512   -0.064397
C      1.471000    0.081734    1.053181
C      0.080995    0.115167    0.905269
O      3.680942   -0.130237    0.072414
H     -2.784747   -0.635241    1.342002
H     -3.974398    0.185672    0.266698
H     -2.716465    1.163893    1.107013
H     -0.081426   -0.320469   -2.477184
H      2.355122   -0.376495   -2.198162
H      1.906411    0.193845    2.038063
H     -0.524734    0.253787    1.790541
H      4.126398   -0.028994    0.976970
