21

C      3.561965    0.635047    0.015725
C      2.702097   -0.575584    0.224352
O      3.267265   -1.676451    0.468277
C      1.217478   -0.508138    0.151060
C      0.448526   -1.669282    0.353384
C     -0.946621   -1.620404    0.287429
C     -1.605211   -0.416887    0.019157
C     -0.845004    0.748744   -0.184427
C      0.550910    0.702812   -0.119034
O     -3.006948   -0.421342   -0.036337
C     -3.804655    0.728414   -0.299386
H      3.320413    1.405030    0.778043
H      3.391949    1.047691   -1.000724
H      4.636828    0.371208    0.111954
H      0.924125   -2.619157    0.563343
H     -1.520235   -2.524929    0.446062
H     -1.322601    1.696152   -0.393973
H      1.100767    1.620041   -0.281174
H     -3.633835    1.498612    0.482184
H     -3.562095    1.140235   -1.301784
H     -4.875118    0.438187   -0.284130
