19

C     -3.514692   -0.190149    0.130824
O     -2.453544    0.749100   -0.007876
C     -1.093691    0.407057   -0.049610
C     -0.153815    1.432995   -0.190452
C      1.213672    1.145939   -0.235887
C      1.667325   -0.181275   -0.134602
C      0.720537   -1.212876   -0.004646
C     -0.646420   -0.923543    0.041679
C      3.114094   -0.505196   -0.185716
O      3.483471   -1.665886   -0.507698
O      4.090503    0.439315    0.129237
H     -4.481651    0.353295    0.134860
H     -3.509661   -0.900699   -0.722595
H     -3.413053   -0.742339    1.088945
H     -0.486104    2.460310   -0.271781
H      1.905245    1.965196   -0.375414
H      1.037730   -2.245640    0.072052
H     -1.345882   -1.741362    0.148697
H      3.865936    1.355758    0.493908
