17

C      0.583854   -1.174650    0.335764
C     -0.810948   -1.208398    0.381307
C     -1.546416   -0.119802   -0.111742
N     -0.883501    0.951577   -0.626594
C      0.473681    1.007930   -0.681897
C      1.247160   -0.059302   -0.199642
C      2.724061   -0.005894   -0.256124
O      3.414783   -0.967111    0.178352
O      3.365869    1.108373   -0.790568
C     -3.024398   -0.119174   -0.080489
O     -3.650124   -1.104630    0.393417
O     -3.750862    0.964116   -0.571253
H      1.141405   -2.020185    0.719017
H     -1.307195   -2.076247    0.797481
H      0.943773    1.887053   -1.102783
H      4.376890    1.155383   -0.834117
H     -3.298031    1.780963   -0.962669
