12

C      0.693678   -0.439594    0.658437
C     -0.440312   -0.103673   -0.323854
C     -0.780393    1.359446   -0.270848
O      0.014441    2.195327   -0.671089
O     -1.584155   -0.846702    0.006196
O      1.882394    0.211220    0.296643
H      0.407886   -0.121235    1.684190
H      0.858676   -1.540974    0.684459
H     -0.121183   -0.351306   -1.363234
H     -1.745306    1.683184    0.107125
H     -1.428150   -1.773030   -0.316009
H      2.242424   -0.272663   -0.492016
