17

C     -1.864334   -1.273722   -0.111887
C     -0.541099   -1.744883   -0.042172
C      0.484042   -0.802340    0.021030
C      0.228481    0.545218    0.016431
C      1.447488    1.189374    0.088280
C      2.396966    0.174089    0.133523
N      1.803776   -1.040177    0.092195
C     -1.077409    1.044094   -0.052114
C     -2.131326    0.113076   -0.116855
O     -1.349297    2.411012   -0.057451
H     -2.683559   -1.979096   -0.162061
H     -0.327221   -2.805876   -0.037800
H      1.635013    2.254461    0.106191
H      3.467303    0.320568    0.193652
H      2.278570   -1.970076    0.111800
H     -3.155098    0.460490   -0.170903
H     -0.612296    3.103789   -0.011859
