26

C     -2.442406    1.310907    1.663881
C     -3.391536    0.675669    0.864729
C     -2.988125   -0.067913   -0.245934
C     -1.626039   -0.185492   -0.576155
C     -0.659797    0.437754    0.258299
C     -1.084805    1.193615    1.364034
C      0.795250    0.289626    0.026638
C      1.535014    1.432315   -0.322033
C      2.896027    1.334892   -0.613743
C      3.534610    0.096898   -0.561568
C      2.817988   -1.046675   -0.203991
C      1.448217   -0.968004    0.109670
N      0.748341   -2.157545    0.521352
O      1.142338   -3.280507    0.143851
O     -0.264620   -2.090793    1.450048
N     -1.252507   -0.922416   -1.755881
O     -0.253883   -0.590647   -2.427294
O     -2.081415   -1.905355   -2.246000
H     -2.758556    1.889007    2.522588
H     -4.443832    0.765071    1.101959
H     -3.744590   -0.535826   -0.862864
H     -0.359527    1.676876    2.007689
H      1.050103    2.398982   -0.387355
H      3.454857    2.220135   -0.888662
H      4.589646    0.023522   -0.792012
H      3.339245   -1.994095   -0.151245
