19

C     -0.612240    0.359625    1.303378
C     -0.198469    0.263293   -0.185208
C     -0.857521    1.424915   -0.951717
C     -0.699418   -1.027825   -0.801938
O     -0.178936   -1.460926   -1.865984
O     -1.778175   -1.708825   -0.242237
N      1.272385    0.375084   -0.345189
C      2.041890   -0.631104    0.400082
H     -0.295615   -0.543918    1.866282
H     -1.716279    0.445115    1.401504
H     -0.152398    1.253233    1.777262
H     -1.966297    1.352290   -0.906028
H     -0.548327    1.410104   -2.019486
H     -0.554074    2.402177   -0.517780
H     -2.131254   -2.559557   -0.663734
H      1.588494    1.317891   -0.014930
H      3.096402   -0.605889    0.054636
H      1.654108   -1.655708    0.222069
H      2.035724   -0.409976    1.489020
