23

C      3.767697   -0.079337    0.651565
C      3.548105   -1.031618   -0.347470
C      2.294550   -1.127973   -0.959951
C      1.248445   -0.282304   -0.569509
C      1.481468    0.688075    0.423376
C      2.736071    0.782425    1.033925
O      0.010153   -0.398580   -1.218147
C     -1.238323   -0.115072   -0.644954
C     -1.491046   -0.312050    0.725845
C     -2.755147   -0.033447    1.255116
C     -3.776643    0.430558    0.421851
C     -3.537349    0.609237   -0.943412
C     -2.274254    0.331105   -1.475442
H      4.738660   -0.004341    1.123862
H      4.349486   -1.693836   -0.648691
H      2.132505   -1.866448   -1.734839
H      0.702825    1.382224    0.710768
H      2.910643    1.528602    1.798287
H     -0.720246   -0.698239    1.379640
H     -2.944878   -0.184364    2.309977
H     -4.754963    0.644454    0.832457
H     -4.330830    0.961392   -1.589826
H     -2.096927    0.469537   -2.534427
