28

C     -0.527253   -2.281156    0.636435
C     -0.088978   -1.287476   -0.451057
C      1.084228   -0.382328   -0.093184
C      1.440098    0.651053   -0.982164
C      2.529249    1.483575   -0.710566
C      3.291325    1.286045    0.441481
C      2.970526    0.250207    1.320035
C      1.882198   -0.586576    1.054238
N     -1.250521   -0.508776   -0.917373
C     -1.860372   -0.696941   -2.108107
N     -2.923625    0.111299   -2.291531
C     -2.990058    0.839381   -1.161598
C     -1.972363    0.465982   -0.309070
C     -1.755070    1.064525    1.025239
O     -0.793290    0.712974    1.754748
O     -2.631455    2.043823    1.483937
H     -1.414568   -2.850138    0.285779
H      0.281717   -3.015304    0.836866
H     -0.796052   -1.767047    1.580027
H      0.274109   -1.914564   -1.296584
H      0.872018    0.814220   -1.889585
H      2.785383    2.279787   -1.397553
H      4.135252    1.930946    0.649693
H      3.568731    0.092331    2.208226
H      1.671093   -1.380718    1.755775
H     -1.537616   -1.422852   -2.843588
H     -3.740600    1.596053   -0.973880
H     -2.504105    2.471673    2.393359
