33

C      3.525030    1.043484    1.162608
C      3.268486   -0.419170    0.770927
C      2.333941   -0.560287   -0.453094
C      2.945441    0.026081   -1.706064
O      2.824485    1.253083   -1.965736
O      3.693008   -0.775132   -2.565100
N      1.018298    0.032611   -0.178171
C      0.024518   -0.638515    0.610583
O      0.223592   -1.812890    1.024672
C     -1.281042    0.036234    0.907024
C     -2.254627   -0.144047   -0.265493
C     -3.563848    0.647705   -0.075247
C     -4.347641    0.633854   -1.362299
O     -4.442382    1.684805   -2.049559
O     -4.951404   -0.535277   -1.818883
N     -4.372016    0.068912    1.001316
O      4.489269   -1.060741    0.503209
H      4.085944    1.573811    0.365026
H      4.129081    1.079443    2.093888
H      2.568125    1.572994    1.353832
H      2.773493   -0.922896    1.633818
H      2.189553   -1.646681   -0.645109
H      3.835099   -1.760343   -2.377356
H      0.806149    1.001258   -0.509102
H     -1.710171   -0.401142    1.833498
H     -1.098862    1.117627    1.088333
H     -1.754453    0.210148   -1.195385
H     -2.483964   -1.225594   -0.391723
H     -3.317927    1.705105    0.178128
H     -4.886356   -1.400412   -1.296174
H     -3.911092    0.281218    1.914956
H     -5.289597    0.571119    1.034321
H      4.931870   -1.216764    1.378358
