15

C     -2.472548    0.925042    0.920858
O     -1.065968    0.718795    0.965793
C     -0.467756   -0.477776    0.560698
O     -1.170018   -1.446943    0.163036
C      1.018370   -0.626411    0.645890
C      1.703636   -0.913740   -0.681401
C      1.804516    0.468313   -0.059265
H     -2.703175    1.946145    1.287804
H     -2.837857    0.826640   -0.123362
H     -2.986431    0.184634    1.569870
H      1.492442   -1.064922    1.549245
H      1.045487   -0.955206   -1.576339
H      2.635150   -1.512603   -0.598806
H      1.207775    1.241588   -0.590017
H      2.796378    0.686442    0.389965
