43

C      2.932347   -0.711973   -1.957471
C      3.861346   -0.110871   -0.937045
C      3.369063    0.471337    0.255116
C      4.268256    1.060482    1.171198
C      5.645727    1.036719    0.903261
C      6.129393    0.428899   -0.254803
C      5.245280   -0.144586   -1.168141
C      3.763858    1.713927    2.428952
N      1.959964    0.494492    0.527624
C      1.224849   -0.696124    0.840083
O      1.813358   -1.809007    0.912944
C     -0.256654   -0.627283    1.054730
N     -0.959983   -0.551197   -0.227044
C     -2.392741   -0.452446   -0.338231
C     -2.976627   -0.370797   -1.612125
C     -4.367885   -0.273269   -1.758965
C     -5.182031   -0.231457   -0.618842
C     -4.617441   -0.331635    0.660369
C     -3.224577   -0.428725    0.797820
C     -5.491432   -0.257441    1.877869
C     -4.974533   -0.136006   -3.124326
H      3.409550   -0.744915   -2.960112
H      2.666890   -1.746844   -1.658560
H      2.007135   -0.105424   -2.050058
H      6.349426    1.483509    1.594728
H      7.194181    0.407145   -0.448248
H      5.641628   -0.605339   -2.064698
H      3.191068    2.628627    2.168997
H      3.102489    1.012957    2.980805
H      4.598104    2.001325    3.103795
H      1.488563    1.420867    0.633168
H     -0.593669   -1.529302    1.610159
H     -0.491028    0.272509    1.662862
H     -0.399243   -0.571407   -1.110288
H     -2.344528   -0.378353   -2.492164
H     -6.254942   -0.122699   -0.727169
H     -2.799986   -0.481133    1.791454
H     -6.502175   -0.664692    1.661865
H     -5.588437    0.800780    2.198511
H     -5.054693   -0.849880    2.709938
H     -4.362611   -0.671655   -3.881105
H     -5.029270    0.938473   -3.397412
H     -5.997985   -0.567585   -3.143972
