18

C      3.144871   -0.482034   -0.183789
C      1.738072   -0.529209    0.316421
O      1.340534   -1.536423    0.962330
N      0.863426    0.586183    0.098259
C     -0.523643    0.601378    0.558586
C     -1.394241   -0.283272   -0.336085
C     -2.823484   -0.237131    0.111947
O     -3.262507   -1.113034    0.902854
O     -3.662839    0.792114   -0.304236
H      3.742046    0.199366    0.457020
H      3.159568   -0.107910   -1.228841
H      3.600307   -1.494892   -0.161159
H      1.245206    1.444483   -0.359886
H     -0.905060    1.645639    0.521143
H     -0.573348    0.256448    1.614769
H     -1.031180   -1.333052   -0.304051
H     -1.327770    0.070269   -1.387614
H     -3.329959    1.521077   -0.923927
