22

C      2.648545   -0.649763   -0.313167
C      1.435082    0.239944   -0.593211
C      0.123621   -0.282815    0.050591
C      0.266624   -0.359598    1.585607
C     -1.095207    0.614726   -0.339163
C     -2.381328    0.075037    0.223347
O     -2.821974   -1.043294   -0.157156
O     -3.084631    0.810057    1.172848
N     -1.255514    0.748508   -1.790831
H      2.976516   -0.549647    0.742141
H      2.412674   -1.712564   -0.533476
H      3.494418   -0.335079   -0.960396
H      1.649082    1.272311   -0.239796
H      1.320533    0.275429   -1.696433
H     -0.062100   -1.313154   -0.328039
H     -0.675067   -0.706587    2.058812
H      0.529832    0.635575    2.003682
H      1.046785   -1.093493    1.873390
H     -0.935749    1.630120    0.090382
H     -3.950121    0.458828    1.564869
H     -0.574397    1.453478   -2.154534
H     -1.067626   -0.168018   -2.259468
