40

C      4.286481   -2.296845    1.891792
O      3.226242   -1.348191    1.948755
C      2.883376   -0.480299    0.901437
C      1.813077    0.401100    1.091767
C      1.431617    1.284401    0.078555
C      2.119381    1.299260   -1.145020
C      3.189162    0.413125   -1.341799
C      3.573068   -0.468020   -0.326312
C      1.670256    2.208164   -2.260945
C      0.790924    1.461552   -3.272261
N     -0.366958    0.855194   -2.616454
C     -1.433381    1.641171   -2.062317
O     -1.620762    2.818251   -2.471801
C     -2.333093    1.101336   -1.024945
C     -2.009393    0.043550   -0.266159
C     -2.877646   -0.509271    0.803367
C     -3.922127    0.229662    1.398352
C     -4.700517   -0.337721    2.412501
C     -4.444053   -1.638343    2.850624
C     -3.403451   -2.373597    2.280351
C     -2.621466   -1.812041    1.266659
H      5.255070   -1.777796    1.731644
H      4.103185   -3.025582    1.074122
H      4.332952   -2.846787    2.853951
H      1.270617    0.397766    2.028763
H      0.593324    1.949406    0.245229
H      3.721511    0.400632   -2.284943
H      4.401972   -1.138335   -0.507893
H      1.112755    3.078440   -1.851286
H      2.560035    2.616165   -2.787826
H      0.450375    2.162308   -4.064598
H      1.393523    0.666781   -3.764036
H     -0.415943   -0.187214   -2.574419
H     -3.268298    1.621126   -0.874182
H     -1.064292   -0.457195   -0.432963
H     -4.131104    1.249169    1.108344
H     -5.499610    0.235527    2.864763
H     -5.047450   -2.073881    3.636571
H     -3.201086   -3.379620    2.624624
H     -1.818272   -2.399346    0.837987
