22

C     -3.796482    0.962250    0.242667
C     -2.373100    0.500670    0.137723
C     -1.327251    1.434715    0.106421
C      0.001859    1.004866    0.045315
C      0.305364   -0.368547    0.041071
C     -0.743990   -1.299149    0.066891
C     -2.072719   -0.869222    0.129113
N      1.661873   -0.838422   -0.045050
C      2.786346   -0.168492    0.545482
O      2.616409    0.750298    1.391690
C      4.173110   -0.627388    0.232313
H     -3.928417    1.943676   -0.260783
H     -4.073348    1.064041    1.312719
H     -4.481543    0.233815   -0.241221
H     -1.540737    2.496505    0.119700
H      0.786306    1.746566   -0.021347
H     -0.529985   -2.360554    0.052548
H     -2.866750   -1.604818    0.167813
H      1.832561   -1.766815   -0.494335
H      4.905036    0.179968    0.447004
H      4.417184   -1.515198    0.851807
H      4.248272   -0.898765   -0.841565
