20

C      3.078157    0.547808   -0.394113
N      3.139637    0.198594    1.021262
N      2.124469    0.183329    1.795585
N      0.820568    0.454060    1.347090
C      0.145242   -0.441105    0.454937
C     -1.072913   -0.221405   -0.162664
N     -1.377239   -1.329456   -0.861378
C     -0.355785   -2.182813   -0.650969
N      0.598489   -1.675281    0.157785
C     -1.892760    1.008624   -0.139022
O     -1.393883    2.090593    0.269300
N     -3.249057    0.995694   -0.588170
H      2.554277   -0.244357   -0.965552
H      2.558579    1.520431   -0.526060
H      4.110417    0.638441   -0.789774
H      0.251957    1.138943    1.890843
H     -2.209465   -1.501334   -1.467051
H     -0.303117   -3.171637   -1.086965
H     -3.803988    1.880180   -0.597863
H     -3.723587    0.110691   -0.870339
