45

C     -3.339807    0.950077   -1.720489
C     -3.369772   -0.372830   -0.933631
C     -4.803972   -0.931617   -0.929504
C     -2.747069   -0.231646    0.494924
C     -2.458327   -1.567271    1.115077
O     -3.315761   -2.411966    1.486273
N     -1.070079   -1.739109    1.307806
C     -0.514131   -0.514504    0.855462
N     -1.391671    0.319969    0.389240
C      0.941823   -0.267033    0.814130
C      1.514979    1.030912    0.844245
C      2.903061    1.152196    0.666115
C      3.706325    0.016634    0.515633
C      3.100644   -1.242748    0.533087
N      1.755050   -1.349591    0.672737
C      5.193638    0.155709    0.325239
O      5.480417    0.745270   -0.928249
C      5.557703   -0.247682   -1.927891
C      0.731195    2.253774    1.128830
O      1.041894    3.346124    0.583862
O     -0.309417    2.229703    2.049836
C     -3.572695    0.636992    1.460594
N     -0.000000   -0.000000   -0.000000
H     -4.000265    1.709968   -1.253604
H     -3.690138    0.779807   -2.761060
H     -2.307625    1.354151   -1.779688
H     -2.741572   -1.094383   -1.503978
H     -4.852316   -1.911311   -0.414991
H     -5.148451   -1.091919   -1.973582
H     -5.508169   -0.226061   -0.441185
H     -0.578566   -2.551510    1.742063
H      3.368814    2.131087    0.677918
H      3.693646   -2.140916    0.418684
H      5.720291   -0.816302    0.477948
H      5.583125    0.829521    1.117613
H      4.612650   -0.830366   -1.998312
H      5.718635    0.248355   -2.906895
H      6.420686   -0.926291   -1.748833
H     -3.042920    0.737803    2.432774
H     -3.717860    1.657019    1.050186
H     -4.563991    0.179986    1.661168
H     -0.354177   -0.741499    0.644632
H      0.346662    0.811041    0.559329
H     -0.773665    0.314793   -0.627024
H      0.781180   -0.384335   -0.576937
