24

C     -1.799888   -0.963586   -1.323348
C     -1.081051   -0.459585   -0.056930
C     -0.713774   -1.661708    0.831512
C      0.127830    0.489946   -0.412334
C      0.973487    0.908913    0.836048
C      2.081331   -0.044778    1.202206
O      1.976636   -0.778372    2.219814
O      3.249444   -0.096619    0.446180
C     -0.445766    1.762351   -1.006747
O     -1.144264    2.537372   -0.297256
O     -0.220475    2.077045   -2.344882
O      0.959604   -0.089408   -1.395177
H     -2.130420   -0.113943   -1.956361
H     -2.706375   -1.543057   -1.045918
H     -1.132708   -1.619535   -1.921916
H     -1.827452    0.128449    0.524004
H     -1.590053   -2.334649    0.949455
H     -0.446765   -1.319759    1.850935
H      0.118670   -2.255479    0.402780
H      1.463641    1.890353    0.648052
H      0.305059    1.062263    1.711787
H      3.383833    0.507914   -0.355417
H     -0.605634    2.920621   -2.752472
H      1.205090   -1.004749   -1.107497
