47

C      6.001993   -1.678049   -2.047057
C      5.794727   -0.438521   -1.181548
C      5.022316   -0.782049    0.100074
C      4.925205    0.404782    1.075155
C      4.189014    1.643828    0.525908
C      2.757673    1.383487    0.023531
C      1.824016    0.861832    1.125427
C      0.379870    0.764621    0.620141
C     -0.551336    0.228919    1.712857
C     -1.965157    0.136851    1.204344
C     -2.831798    1.234501    1.318329
C     -4.134049    1.159681    0.816141
C     -4.587637   -0.004222    0.184830
C     -3.714439   -1.101537    0.057965
C     -2.411764   -1.027190    0.560242
O     -5.902891   -0.028673   -0.301676
C     -6.495322   -1.141172   -0.968008
C     -7.933516   -0.808049   -1.352195
O     -7.963088    0.234906   -2.288884
H      5.022095   -2.115198   -2.334986
H      6.596109   -2.438682   -1.497066
H      6.551703   -1.399003   -2.970617
H      6.787567   -0.011823   -0.920550
H      5.230983    0.311508   -1.775725
H      5.550316   -1.607265    0.626497
H      4.008220   -1.157084   -0.153447
H      4.426006    0.062790    2.006542
H      5.953368    0.711114    1.367195
H      4.150566    2.411263    1.329528
H      4.782865    2.088052   -0.300927
H      2.772284    0.675616   -0.832019
H      2.356021    2.346832   -0.360461
H      2.157672   -0.147100    1.449715
H      1.862718    1.548828    1.999304
H      0.031302    1.772466    0.302806
H      0.343271    0.084745   -0.259956
H     -0.513768    0.899222    2.599823
H     -0.204914   -0.775474    2.042461
H     -2.498551    2.148379    1.794544
H     -4.794029    2.012290    0.914650
H     -4.030621   -2.013744   -0.429099
H     -1.750044   -1.876977    0.445672
H     -6.498392   -2.022561   -0.290660
H     -5.916526   -1.385140   -1.885437
H     -8.521430   -0.540960   -0.444300
H     -8.401420   -1.706116   -1.807976
H     -7.857189    1.080075   -1.778883
