24

C     -3.043898   -0.285079    0.608691
C     -2.197578    0.701260   -0.195032
C     -1.261801    0.010793   -1.202930
C     -0.228083   -0.949486   -0.580249
C      0.733586   -0.280320    0.417285
C      1.622839    0.817823   -0.216515
C      3.037441    0.584893    0.326257
C      2.929865   -0.761898    0.918576
O      3.905473   -1.413357    1.374322
O      1.639647   -1.240542    0.931935
H     -2.410038   -0.857771    1.317136
H     -3.800650    0.273500    1.198813
H     -3.572276   -0.987740   -0.070147
H     -1.619866    1.351203    0.494791
H     -2.884988    1.365024   -0.762900
H     -1.879651   -0.562881   -1.927754
H     -0.733442    0.793916   -1.787224
H     -0.754080   -1.786220   -0.073843
H      0.366981   -1.403779   -1.402545
H      0.169175    0.144578    1.274538
H      1.253872    1.831410    0.052286
H      1.645566    0.725845   -1.324833
H      3.795040    0.603163   -0.486488
H      3.286868    1.325666    1.115830
