47

C     -4.825106    2.740808   -1.555504
C     -4.489963    1.253648   -1.621347
C     -4.972912    0.519931   -0.361448
C     -4.614957   -0.981192   -0.385668
C     -3.397134   -1.337698    0.483909
C     -2.086566   -0.737231   -0.050181
C     -0.843748   -1.319200    0.640625
C     -0.735003   -0.893723    2.112847
C      0.557096   -1.366869    2.730433
C      1.763408   -0.797333    2.541619
C      2.038249    0.395983    1.654672
C      2.887423    0.011308    0.433743
C      4.362206   -0.231095    0.798872
C      5.199360   -0.719222   -0.397978
C      5.378468    0.322472   -1.513886
C      6.107883    1.539180   -1.033493
O      5.476510    2.599462   -0.783220
O      7.481283    1.491693   -0.830757
H     -4.320888    3.211153   -0.684523
H     -4.474269    3.242428   -2.481936
H     -5.922887    2.885900   -1.466923
H     -4.981353    0.815710   -2.517408
H     -3.392609    1.141681   -1.739694
H     -4.557543    1.008437    0.547486
H     -6.079746    0.618163   -0.306911
H     -5.482779   -1.549709    0.015089
H     -4.458053   -1.342951   -1.425858
H     -3.306858   -2.445798    0.506673
H     -3.579036   -0.992606    1.524334
H     -2.005763   -0.953015   -1.138055
H     -2.093069    0.366059    0.081884
H     -0.856973   -2.429089    0.570205
H      0.047017   -0.963701    0.083430
H     -1.567635   -1.359217    2.681289
H     -0.840409    0.206132    2.226181
H      0.499649   -2.210650    3.412550
H      2.607510   -1.230438    3.069425
H      2.566471    1.169922    2.251907
H      1.101419    0.866552    1.295826
H      2.826747    0.847849   -0.293787
H      2.462982   -0.894385   -0.051732
H      4.804743    0.695635    1.223200
H      4.420648   -1.013565    1.584532
H      6.203383   -1.022285   -0.027651
H      4.725717   -1.628375   -0.828410
H      5.970266   -0.137314   -2.334106
H      4.396824    0.606553   -1.947721
