27

C      4.080671    0.109558   -0.116774
C      2.827824   -0.105074    0.727680
C      1.557693    0.015622   -0.123075
C      0.298789   -0.203299    0.733754
C     -1.009741   -0.138526   -0.095890
C     -2.136262   -0.887583    0.661153
C     -3.426375   -1.031146   -0.147276
C     -1.402079    1.328627   -0.390993
O     -2.275656    1.386455   -1.485020
H      4.982016    0.015101    0.524802
H      4.137464   -0.652121   -0.923428
H      4.071932    1.123938   -0.569582
H      2.876035   -1.115064    1.190207
H      2.807706    0.653654    1.540248
H      1.535933    1.021381   -0.591460
H      1.587652   -0.746952   -0.932266
H      0.262738    0.547891    1.553909
H      0.391008   -1.205437    1.208305
H     -0.835856   -0.666459   -1.060792
H     -1.788427   -1.914998    0.906915
H     -2.361219   -0.372592    1.620864
H     -3.210647   -1.431214   -1.160710
H     -3.946937   -0.054954   -0.231353
H     -4.110191   -1.735809    0.371463
H     -0.504292    1.935604   -0.631913
H     -1.881790    1.782619    0.505694
H     -2.527989    2.340778   -1.588299
