23

C     -3.874551   -0.607517    0.666878
C     -3.245084   -0.143971   -0.641659
O     -1.822875   -0.226496   -0.572963
C     -1.027866    0.690307    0.127121
O     -1.559123    1.684287    0.695370
C      0.437404    0.494234    0.192325
C      1.034324   -0.612080   -0.437916
C      2.422609   -0.803092   -0.378444
C      3.224821    0.112603    0.313101
C      2.636653    1.216454    0.943228
C      1.253532    1.407095    0.884268
O      4.603905   -0.080748    0.369810
O      3.011101   -1.900722   -1.004284
H     -4.980978   -0.590228    0.575508
H     -3.548415   -1.643692    0.897716
H     -3.575428    0.062413    1.499713
H     -3.562634    0.895167   -0.876883
H     -3.598001   -0.805446   -1.460652
H      0.427268   -1.329262   -0.976257
H      3.251123    1.928254    1.479762
H      0.824248    2.268672    1.380239
H      5.209810    0.564885    0.862706
H      2.458158   -2.581117   -1.512426
