17

C      0.577702    0.316487   -0.627471
C      1.377371    0.140445    0.670815
S      2.966891    1.019020    0.554204
C     -0.841352   -0.298003   -0.591988
C     -1.712634    0.362099    0.443351
O     -1.826599   -0.129385    1.599001
O     -2.362240    1.552932    0.133396
N     -0.819075   -1.753874   -0.414332
H      1.145915   -0.140940   -1.466560
H      0.486057    1.403004   -0.848153
H      1.587135   -0.932282    0.861048
H      0.816683    0.559105    1.531883
H      3.466861    0.148554   -0.433442
H     -1.307546   -0.093035   -1.581045
H     -2.939585    2.023810    0.819780
H     -0.396787   -2.001397    0.508931
H     -0.218798   -2.176539   -1.159418
