29

C      1.537680    1.427086    0.053119
C      1.738148    0.041765    0.693078
C      0.472528   -0.837916    0.546081
C     -0.755308   -0.300949    1.311656
C     -1.643583    0.557467    0.441706
C     -2.544570    0.073137   -0.441949
C     -2.782696   -1.409466   -0.613469
C     -3.352142    1.053183   -1.253370
C      2.947934   -0.682194    0.059633
C      4.248009    0.002215    0.370510
O      4.655817    0.064868    1.519453
H      1.209615    1.328190   -1.003846
H      0.781796    2.008319    0.618224
H      2.479065    2.014662    0.080109
H      1.943001    0.179747    1.778560
H      0.241136   -0.979776   -0.531944
H      0.699823   -1.845962    0.957903
H     -0.426267    0.295351    2.189818
H     -1.343577   -1.148191    1.723838
H     -1.560576    1.634305    0.562786
H     -3.555052   -1.609759   -1.384705
H     -3.138484   -1.849321    0.341437
H     -1.851474   -1.919818   -0.931136
H     -3.937351    1.710158   -0.575471
H     -4.060795    0.538600   -1.935072
H     -2.671951    1.680003   -1.868244
H      2.819040   -0.736004   -1.043588
H      3.012731   -1.724123    0.442086
H      4.837505    0.434422   -0.431421
