32

C      5.654128    0.252348   -0.225744
C      4.227572   -0.054047   -0.672312
C      3.258829   -0.033702    0.515683
C      1.826595   -0.343046    0.063560
C      0.855671   -0.311497    1.253420
C     -0.567778   -0.743682    0.867664
C     -1.288184    0.299622    0.004063
C     -2.708990   -0.106975   -0.225838
O     -3.001089   -0.825950   -1.220300
O     -3.690218    0.272626    0.696989
C     -5.071584   -0.050789    0.551486
C     -5.723189    0.833500   -0.505370
H      6.000307   -0.506655    0.507850
H      5.705309    1.260767    0.237460
H      6.331629    0.230867   -1.105233
H      3.915750    0.703897   -1.423743
H      4.209120   -1.055971   -1.154145
H      3.284479    0.970292    0.994282
H      3.580553   -0.790813    1.264620
H      1.518213    0.411536   -0.691064
H      1.800818   -1.349753   -0.408757
H      0.832650    0.708160    1.697058
H      1.224806   -1.010383    2.035929
H     -1.146399   -0.892949    1.806221
H     -0.534414   -1.719414    0.334442
H     -1.274350    1.287718    0.512760
H     -0.780448    0.405997   -0.977833
H     -5.579297    0.122606    1.523607
H     -5.192651   -1.123561    0.285910
H     -5.593323    1.903176   -0.236630
H     -5.266090    0.649710   -1.499964
H     -6.808426    0.606365   -0.564574
