13

C     -0.961440   -1.066126    0.304006
C     -0.187375   -0.062823   -0.559026
C      1.235452    0.052631   -0.080183
O      2.186794   -0.229221   -0.857112
O      1.504389    0.474769    1.218954
N     -0.847081    1.244747   -0.538057
Cl    -2.601499   -1.327669   -0.347391
H     -0.433542   -2.043980    0.313016
H     -1.045304   -0.699146    1.349596
H     -0.184339   -0.440316   -1.606473
H      2.457601    0.557485    1.551559
H     -0.327305    1.891683   -1.175316
H     -0.796351    1.647965    0.426426
