20

C     -2.287104    0.514172   -0.568145
C     -1.218745    1.356340   -0.884070
C      0.060348    1.102196   -0.368353
C      0.266780   -0.004027    0.481055
C     -0.813279   -0.852027    0.782026
C     -2.086201   -0.593587    0.263958
O     -3.142952   -1.444285    0.580596
C      1.635153   -0.322299    1.026049
C      2.364773   -1.237162    0.090269
O      2.201793   -2.482712    0.177810
O      3.192246   -0.724323   -0.904529
O      1.122219    1.944323   -0.697630
H     -3.269380    0.720996   -0.973553
H     -1.385069    2.206596   -1.533258
H     -0.665978   -1.716061    1.418815
H     -4.076915   -1.285173    0.221016
H      2.223727    0.607270    1.179708
H      1.546489   -0.807191    2.022884
H      3.335050    0.273022   -1.007327
H      0.997046    2.743935   -1.307320
