22

C      2.701821    1.321508   -0.390080
C      1.402421    0.605726   -0.033277
C      1.325485   -0.771180   -0.707154
C      0.094874   -1.573134   -0.259047
C     -1.200931   -0.931699   -0.691437
O     -1.400950   -0.723093   -1.879183
C     -2.276424   -0.592849    0.308314
C     -2.504836    0.913152    0.386693
H      2.773927    1.464560   -1.489388
H      2.724108    2.317625    0.100081
H      3.576037    0.733395   -0.038107
H      1.346154    0.490258    1.071070
H      0.551039    1.234880   -0.368597
H      2.232896   -1.357134   -0.442289
H      1.313379   -0.649584   -1.812739
H      0.124358   -1.704764    0.844089
H      0.148511   -2.586473   -0.711753
H     -3.221704   -1.092002    0.004910
H     -2.007765   -0.966643    1.319365
H     -1.590023    1.422989    0.754665
H     -2.778695    1.318923   -0.610583
H     -3.333682    1.125539    1.094386
