24

C     -4.508596   -0.564916   -0.022628
C     -3.169578    0.025361    0.277992
O     -3.100587    1.088028    0.952648
N     -1.986340   -0.566664   -0.280091
C     -0.646928   -0.190898    0.085489
C      0.373793   -0.269234   -0.871216
C      1.703330    0.058595   -0.546207
C      2.004360    0.497462    0.768765
C      0.983959    0.528706    1.732197
C     -0.325453    0.182952    1.398208
N      3.315402    0.958431    1.133443
O      3.939268    1.733824    0.379766
O      3.783300    0.755615    2.411373
C      2.753054   -0.133779   -1.573847
O      2.468062   -0.026383   -2.797393
O      4.049313   -0.482462   -1.204501
H     -4.846490   -0.223789   -1.023132
H     -4.443327   -1.673163   -0.016753
H     -5.250669   -0.248471    0.740800
H     -2.109686   -1.253584   -1.058453
H      0.128344   -0.606767   -1.871359
H      1.199027    0.845573    2.744967
H     -1.081213    0.195636    2.172037
H      4.767656   -0.630072   -1.903339
