14

C      1.387301    0.520094    0.119579
C      1.079872   -0.929449   -0.112639
O      2.018139   -1.751546   -0.287101
N     -0.277803   -1.386068   -0.098967
C     -1.378425   -0.493065    0.257357
C     -1.087077    0.907508   -0.193336
O     -2.035239    1.699471   -0.439115
N      0.268208    1.356849   -0.308513
H      2.299860    0.807733   -0.445573
H      1.571550    0.682216    1.202379
H     -0.476399   -2.402546   -0.236915
H     -1.511222   -0.498500    1.359638
H     -2.315477   -0.855290   -0.217641
H      0.456712    2.342593   -0.599153
