43

C     -1.743869    2.806432    0.521673
C     -2.723061    1.688987    0.806316
C     -1.931599    0.871487    1.838204
N     -0.570400    0.989225    1.318615
C     -0.632087    1.854293    0.136822
C     -1.321168    1.049475   -0.974883
N     -2.684786    0.940099   -0.452863
C     -3.643478   -0.034595   -0.902465
C     -4.818356   -0.296713   -0.174701
C     -5.721275   -1.251772   -0.647156
C     -5.453126   -1.937440   -1.832307
C     -4.277976   -1.655821   -2.531602
N     -3.410079   -0.721856   -2.057076
C      0.497812    0.109502    1.706215
C      1.670117    0.079692    1.060168
C      2.766557   -0.828375    1.456921
O      2.590049   -1.671423    2.379285
C      4.087971   -0.733147    0.800403
C      4.678511    0.532662    0.635808
C      5.946353    0.655340    0.064600
C      6.641961   -0.481922   -0.345926
C      6.066764   -1.744242   -0.195800
C      4.789681   -1.882642    0.360459
O      4.239842   -3.165737    0.432280
H     -1.499344    3.414773    1.421271
H     -2.069501    3.463871   -0.315949
H     -3.732108    2.034420    1.113242
H     -2.263807   -0.188762    1.854849
H     -1.999101    1.319439    2.852593
H      0.321387    2.351769   -0.127813
H     -1.318610    1.603101   -1.939735
H     -0.853552    0.047325   -1.095447
H     -5.038369    0.217707    0.750048
H     -6.627447   -1.461038   -0.092870
H     -6.148050   -2.680619   -2.205145
H     -4.055321   -2.180149   -3.451658
H      0.336180   -0.545271    2.554845
H      1.835390    0.721858    0.205733
H      4.165599    1.425679    0.970780
H      6.392463    1.632902   -0.054394
H      7.623750   -0.385480   -0.789819
H      6.604282   -2.620546   -0.534854
H      3.281806   -3.342488    0.701132
