21

C      1.833931   -0.118282   -0.996105
N      1.109305    0.123681    0.264004
C      1.556239   -0.826603    1.295460
C     -0.360260    0.056761    0.081892
O     -0.720314   -1.201197   -0.467212
C     -2.106777   -1.419736   -0.320728
O     -0.781298    1.085298   -0.801597
C     -0.829881    2.323856   -0.126834
H      1.516335    0.608696   -1.773298
H      1.664863   -1.151247   -1.372654
H      2.924126    0.029779   -0.840202
H      1.339961   -1.877222    1.000111
H      2.649017   -0.718577    1.466363
H      1.052028   -0.610162    2.261670
H     -0.840335    0.179129    1.088432
H     -2.702418   -0.611551   -0.800061
H     -2.368997   -2.372384   -0.824806
H     -2.382135   -1.521147    0.752101
H     -1.628306    2.322122    0.647438
H      0.152196    2.581888    0.327855
H     -1.077279    3.116896   -0.861827
