10

C      1.821248   -0.016147   -0.063643
C      0.590225    0.214243    0.383317
C     -0.590225   -0.214243   -0.383317
C     -1.821249    0.016147    0.063643
H      2.676282    0.307277    0.515690
H      1.990483   -0.525587   -1.004412
H      0.462889    0.727128    1.329646
H     -0.462888   -0.727128   -1.329646
H     -1.990483    0.525588    1.004412
H     -2.676282   -0.307278   -0.515690
