8

C      0.537766   -0.495791    0.903092
C      0.398131    0.333119   -0.129759
C     -0.773394    0.300039   -1.017682
O     -1.709470   -0.524332   -0.838990
H     -0.213623   -1.239296    1.137561
H      1.418474   -0.433589    1.529032
H      1.174486    1.061376   -0.327548
H     -0.832371    0.998474   -1.841644
