14

C      0.324296    0.199112    1.240846
C     -1.004462    0.097988    0.816068
C     -1.295243   -0.117699   -0.538752
C     -0.250759   -0.231245   -1.463302
C      1.078042   -0.130118   -1.038510
C      1.369821    0.085122    0.313218
O      2.697401    0.183964    0.723335
O     -2.614279   -0.220271   -0.974708
H      0.540070    0.365659    2.288542
H     -1.805626    0.187144    1.538668
H     -0.469037   -0.397786   -2.510517
H      1.880943   -0.218944   -1.759273
H      2.941180    0.339535    1.694546
H     -3.392346   -0.142463   -0.330161
