13

C     -1.736102   -0.268778   -0.115762
C     -0.436399    0.525226   -0.208671
C      0.780390   -0.373443    0.025200
N      2.009332    0.404955   -0.091357
H     -1.754787   -1.070128   -0.884911
H     -2.598670    0.408874   -0.288197
H     -1.838439   -0.724718    0.892087
H     -0.453232    1.335846    0.552005
H     -0.366283    0.989831   -1.216284
H      0.722758   -0.837147    1.035843
H      0.790833   -1.184861   -0.735700
H      2.066294    1.051119    0.729457
H      2.814305   -0.256776   -0.003564
