107

C      3.663978    2.363471    0.421714
C      5.038770    2.267235    0.335475
C      5.318438    1.385460   -0.705955
C      4.081463    0.986538   -1.207347
N      3.091144    1.592404   -0.520803
C      3.818025   -0.026542   -2.287739
C      2.975520   -1.160197   -1.766849
C      3.280322   -2.028308   -0.717748
C      2.167378   -2.848722   -0.555431
C      1.237239   -2.444815   -1.514135
N      1.746160   -1.438253   -2.251718
C     -0.150472   -2.993104   -1.723903
C     -1.196763   -2.139060   -1.056956
C     -2.309462   -2.588493   -0.347358
C     -3.050270   -1.453752   -0.007624
C     -2.383691   -0.372874   -0.588924
N     -1.262308   -0.800911   -1.202353
C     -2.751932    1.089968   -0.526227
C     -4.192248    1.361158   -0.883905
C     -5.009171    2.326783   -0.304486
C     -6.289828    2.100559   -0.785689
C     -6.182021    1.054135   -1.694018
N     -4.911290    0.612631   -1.749801
C     -7.324456    0.342866   -2.361448
O     -7.891551   -0.571096   -1.465337
C     -7.550560    2.800207   -0.360397
C     -7.854685    3.944303   -1.277154
O     -7.590659    5.129385   -0.931289
O     -8.442690    3.704285   -2.516342
C     -4.607718    3.287701    0.783935
C     -4.700538    2.628777    2.170232
C     -4.087089    3.519595    3.210394
O     -4.809883    4.080686    4.084001
O     -2.710171    3.764439    3.183214
C     -4.298043   -1.420442    0.844068
C     -3.978320   -1.694982    2.277034
O     -4.669085   -2.519179    2.930836
O     -2.933064   -1.020989    2.899384
C     -2.664286   -4.020084   -0.027383
C     -2.013874   -4.477451    1.279972
C     -2.246497   -5.943337    1.512192
O     -1.267457   -6.732086    1.526430
O     -3.525907   -6.433396    1.764219
C      1.968864   -3.846025    0.549642
C      1.585228   -3.139694    1.816813
O      2.163395   -3.421139    2.902039
O      0.571132   -2.185948    1.806061
C      4.537618   -2.047914    0.115084
C      5.686274   -2.727677   -0.636962
C      6.978678   -2.651263    0.123702
O      7.881662   -3.502862   -0.096865
O      7.227245   -1.590019    0.994027
C      6.688342    0.959620   -1.175614
C      7.329201    2.018528   -2.020922
O      6.642690    2.702664   -2.825672
O      8.704322    2.207817   -1.949048
C      6.019590    2.921181    1.273329
C      5.963179    4.453120    1.191247
C      6.402237    4.958913   -0.149750
O      5.561933    5.455759   -0.940048
O      7.743805    4.913624   -0.513564
H      3.113121    2.948480    1.148026
H      2.066025    1.471447   -0.674204
H      3.279176    0.489575   -3.112999
H      4.749436   -0.433886   -2.725190
H      1.264872   -0.943042   -3.040302
H     -0.361299   -3.012303   -2.813518
H     -0.207477   -4.037946   -1.360862
H     -0.586549   -0.194016   -1.714064
H     -2.513517    1.461763    0.495878
H     -2.109814    1.661928   -1.233683
H     -4.568704   -0.202758   -2.303703
H     -8.098303    1.073865   -2.663759
H     -6.971683   -0.169663   -3.281222
H     -7.348577   -1.400945   -1.512153
H     -8.405315    2.087162   -0.369361
H     -7.450851    3.172666    0.681622
H     -8.661317    4.467206   -3.148968
H     -3.566846    3.644343    0.597129
H     -5.259210    4.188470    0.751987
H     -5.770563    2.427306    2.424376
H     -4.151036    1.660168    2.181471
H     -2.276891    4.365719    3.879323
H     -5.025111   -2.169535    0.459289
H     -4.803530   -0.439884    0.807728
H     -2.695144   -1.218494    3.868485
H     -3.765193   -4.123537    0.051050
H     -2.349452   -4.681126   -0.863150
H     -2.432536   -3.914259    2.135334
H     -0.925423   -4.279207    1.242365
H     -4.322789   -5.802861    1.834805
H      2.905524   -4.419640    0.703815
H      1.190158   -4.587473    0.287303
H      0.307706   -1.698236    2.652952
H      4.362626   -2.584030    1.066977
H      4.806868   -1.015234    0.394363
H      5.428055   -3.793173   -0.812499
H      5.831753   -2.243283   -1.626688
H      8.112350   -1.513784    1.479521
H      7.334281    0.761222   -0.296051
H      6.647444    0.017075   -1.753805
H      9.169412    2.892961   -2.532652
H      7.058909    2.580764    1.067918
H      5.771991    2.609182    2.308850
H      4.930516    4.807175    1.414161
H      6.632957    4.876033    1.971143
H      8.446108    4.520607    0.101817
