9

C      1.064971   -0.190167   -0.156018
O     -0.038086   -0.968562    0.180739
C     -1.074014   -0.039821    0.198935
O     -0.524240    1.240441    0.107464
O      0.615285    1.074902   -0.539519
H      1.745361   -0.100961    0.718307
H      1.609628   -0.662258   -1.000127
H     -1.640918   -0.133473    1.148615
H     -1.757987   -0.220102   -0.658395
