24

C      2.425298    0.787090    0.187826
C      0.906878    0.601042    0.310202
C      0.510824   -0.889638    0.192759
C     -1.020149   -1.026321    0.275805
C     -1.684152   -0.080339   -0.737377
C     -1.136983    1.348839   -0.576439
O      0.277591    1.376327   -0.699603
O     -1.554456    1.912301    0.642560
O     -3.076724   -0.070034   -0.553811
O     -1.399716   -2.348493   -0.009706
O      1.107399   -1.618012    1.236244
O      2.868282    0.378773   -1.077699
H      2.946974    0.203973    0.979478
H      2.668571    1.863185    0.336143
H      0.623543    0.976219    1.320950
H      0.856010   -1.275802   -0.796582
H     -1.361162   -0.743188    1.301161
H     -1.441592   -0.422918   -1.771934
H     -1.560237    1.956881   -1.407843
H     -1.262075    2.860716    0.626363
H     -3.429878   -0.894249   -0.979962
H     -1.309111   -2.864483    0.833574
H      1.194887   -2.555656    0.922104
H      3.849978    0.523788   -1.085649
