26

C      1.933667   -0.501853    0.651001
C      0.767807   -0.041908   -0.259605
C      0.326219    1.429856   -0.014387
C     -0.242091    1.404264    1.410866
C     -1.185891    0.228040    1.216653
C     -0.566640   -0.657429    0.145918
C     -1.668271    0.323610   -0.225514
C     -0.983316    1.551118   -0.805217
C     -0.885756   -2.149788    0.153863
C      1.136054   -0.343836   -1.733791
H      1.637879   -0.587683    1.715784
H      2.288862   -1.511884    0.354893
H      2.784177    0.207352    0.566169
H      1.084890    2.215689   -0.216055
H     -0.798617    2.333722    1.667361
H      0.518370    1.223035    2.196312
H     -1.886444   -0.196345    1.966151
H     -2.694447   -0.036222   -0.449362
H     -0.853177    1.494758   -1.904287
H     -1.545080    2.481626   -0.564424
H     -0.760688   -2.560212   -0.869410
H     -0.189652   -2.673183    0.841368
H     -1.928419   -2.334900    0.489665
H      1.557317   -1.367008   -1.832149
H      1.895165    0.383426   -2.092067
H      0.258084   -0.314242   -2.409739
