13

C     -1.711106    0.422588    0.170835
C     -0.405230   -0.356539    0.295880
C      0.715125    0.306863   -0.508117
N      1.950735   -0.453453   -0.368288
O      2.171579   -1.428196   -1.115786
O      2.767211   -0.235607    0.716744
H     -2.034795    0.465279   -0.891008
H     -2.503050   -0.081993    0.763440
H     -1.582338    1.456105    0.557319
H     -0.114283   -0.406474    1.367722
H     -0.564834   -1.392778   -0.073865
H      0.879983    1.343564   -0.141635
H      0.431003    0.360642   -1.582308
