22

C     -1.376681    1.463569    0.696018
C     -1.494656    0.054183    0.116892
C     -0.338552   -0.329538   -0.844443
C     -0.677325   -1.662389   -1.532219
C      1.070149   -0.421507   -0.180810
C      1.665643    0.935111    0.119614
O      1.796421    1.779666   -0.806939
O      2.108183    1.251335    1.401946
N      1.045854   -1.286307    1.004773
H     -0.593210    1.501204    1.479058
H     -2.339156    1.748475    1.171085
H     -1.148289    2.199394   -0.103905
H     -2.451762    0.014956   -0.448747
H     -1.582746   -0.681509    0.944579
H     -0.298245    0.434036   -1.653482
H     -0.748105   -2.482441   -0.785779
H      0.102259   -1.923308   -2.279505
H     -1.646224   -1.585452   -2.070606
H      1.759569   -0.886652   -0.921313
H      2.516032    2.156551    1.602653
H      2.031729   -1.495805    1.285600
H      0.599112   -0.783573    1.805530
