19

C      2.423742    0.286957    1.877376
N      1.906059    0.001872    0.881672
C      1.276253   -0.346865   -0.335562
C      0.252861   -1.487267   -0.105082
C     -1.199984   -0.996974    0.059174
C     -1.261093    0.373846    0.738265
C     -0.528815    1.453555   -0.083743
C      0.615178    0.894925   -0.956566
H      2.061572   -0.711787   -1.033009
H      0.285655   -2.184386   -0.970842
H      0.543073   -2.081650    0.789787
H     -1.684367   -0.926555   -0.939843
H     -1.774735   -1.735394    0.658960
H     -2.322720    0.671574    0.878489
H     -0.800709    0.296878    1.747848
H     -0.120327    2.216097    0.614774
H     -1.257919    1.970997   -0.744745
H      0.208651    0.617024   -1.954170
H      1.377626    1.687152   -1.122785
