39

C     -2.235629    3.455578    1.227970
O     -1.897675    2.077801    1.106389
C     -2.828421    1.034258    0.964132
C     -2.360638   -0.294333    0.846385
C     -3.283105   -1.360722    0.753083
C     -4.662994   -1.084343    0.763768
C     -5.119758    0.228112    0.861452
C     -4.213855    1.281839    0.960401
O     -2.798329   -2.674869    0.635110
C     -3.617809   -3.834606    0.529326
C     -0.905288   -0.574390    0.835555
O     -0.451408   -1.531608    1.519577
N     -0.014785    0.219215    0.038641
N      1.380419    0.056882    0.117070
C      2.269593    0.867914   -0.663859
O      1.819386    1.868603   -1.285590
C      3.720168    0.574421   -0.716442
C      4.636294    1.641179   -0.754056
C      6.011066    1.395388   -0.793746
C      6.487466    0.084021   -0.805122
C      5.590140   -0.985510   -0.787562
C      4.207001   -0.750983   -0.754201
O      3.324359   -1.830558   -0.786739
H     -2.850633    3.619254    2.137945
H     -1.303501    4.050003    1.318050
H     -2.787092    3.794479    0.325661
H     -5.393248   -1.878383    0.690639
H     -6.183368    0.429714    0.864818
H     -4.602730    2.287224    1.044556
H     -4.249314   -3.774269   -0.382099
H     -4.256053   -3.934978    1.432500
H     -2.968683   -4.730715    0.452309
H     -0.419236    0.901096   -0.641987
H      1.783589   -0.626066    0.796859
H      4.287595    2.666615   -0.736162
H      6.707944    2.223382   -0.812991
H      7.552962   -0.104061   -0.834938
H      5.970336   -1.998883   -0.811990
H      3.655234   -2.787703   -0.821793
