17

C      0.050682   -1.411809    0.095490
C     -1.166134   -0.578441    0.540917
C     -1.347197    0.684581   -0.309740
C     -0.076005    1.488391   -0.352153
O     -0.089523    2.625688   -0.797005
C      1.204262    0.897494    0.169642
C      1.306444   -0.573985   -0.252232
H      0.299967   -2.129357    0.907294
H     -0.235273   -2.015534   -0.793645
H     -2.084466   -1.201382    0.479238
H     -1.034695   -0.282216    1.605229
H     -1.635946    0.403672   -1.345370
H     -2.160745    1.301288    0.129454
H      1.217725    0.973820    1.278152
H      2.078263    1.456758   -0.229850
H      1.471300   -0.611594   -1.351990
H      2.201341   -1.027373    0.226569
