31

C     -0.452061   -0.936617    0.096334
C      0.744139   -1.001964   -0.865063
C      1.849402    0.002227   -0.501697
C      1.439960    1.459868   -0.776756
C      2.612923    2.433747   -0.604004
C      3.046031    2.533117    0.829682
O      2.418420    3.282354    1.623546
O      4.114686    1.777193    1.303104
C     -1.480764   -2.028061   -0.230340
C     -2.619451   -2.112646    0.801790
C     -3.572372   -0.903389    0.773955
C     -3.100107    0.225378    1.644948
O     -3.739696    1.263380    1.694463
H     -0.093770   -1.066629    1.141071
H     -0.938596    0.055317    0.001010
H      0.401774   -0.825294   -1.908407
H      1.183814   -2.022676   -0.823647
H      2.746399   -0.240653   -1.112511
H      2.126494   -0.121658    0.567704
H      0.613709    1.763304   -0.098682
H      1.071896    1.543868   -1.822557
H      3.468568    2.118940   -1.239612
H      2.297261    3.440887   -0.952763
H      4.626495    1.151600    0.692531
H     -1.904217   -1.854555   -1.243994
H     -0.966378   -3.014012   -0.247584
H     -3.216580   -3.018629    0.558468
H     -2.206855   -2.271708    1.822556
H     -4.567663   -1.226540    1.148607
H     -3.708122   -0.540268   -0.267829
H     -2.195338    0.134120    2.237800
