12

C      1.258399    0.662216   -0.351071
C     -0.113573    0.916609   -0.408828
C     -1.019609   -0.042077    0.061358
C     -0.528793   -1.243204    0.582876
N      0.811810   -1.469710    0.629354
C      1.707047   -0.550716    0.177525
O     -2.392852    0.186228    0.015424
H      1.966614    1.396812   -0.711933
H     -0.470073    1.853804   -0.816850
H     -1.212589   -1.996578    0.951194
H      2.766870   -0.761563    0.228607
H     -2.773252    1.048178   -0.357656
