16

C     -2.083678   -0.689240   -0.125116
C     -2.064057    0.718974   -0.008214
C     -0.841474    1.409297    0.088796
C      0.332960    0.658143    0.065223
C      0.312451   -0.706886   -0.048140
C     -0.880890   -1.419542   -0.146029
C      1.620126   -1.140606   -0.041131
C      2.385506    0.015355    0.079358
N      1.594687    1.111268    0.143948
H     -3.029629   -1.209695   -0.199049
H     -2.995099    1.270424    0.006861
H     -0.815426    2.487564    0.178688
H     -0.884550   -2.498284   -0.235185
H      1.977097   -2.159431   -0.113570
H      3.466302    0.048769    0.117479
H      1.905675    2.103888    0.236083
