33

C     -3.048514    0.788934   -2.379703
C     -4.251302    0.112602   -2.079301
C     -4.381168   -0.611378   -0.880438
C     -3.292726   -0.630882   -0.009326
C     -2.125638    0.030434   -0.297147
C     -1.965319    0.750076   -1.483023
C     -1.260004   -0.204208    0.756604
C     -1.959371   -1.031916    1.634274
N     -3.202733   -1.279389    1.164054
C      0.180319    0.233187    0.874366
C      1.139477   -0.891992    0.416474
C      2.612069   -0.465097    0.528163
O      2.857266    0.630392   -0.323899
P      4.491090    1.090451   -0.156381
O      5.397292   -0.039293   -0.593070
O      4.784209    2.442433   -1.130261
O      4.825565    1.490456    1.454069
O      0.850902   -1.238613   -0.914770
O      0.456334    0.650265    2.189708
H     -2.958120    1.338496   -3.307606
H     -5.077422    0.148451   -2.777599
H     -5.295912   -1.140072   -0.645399
H     -1.040506    1.260969   -1.715193
H     -1.574934   -1.445394    2.557256
H     -3.934544   -1.872512    1.614822
H      0.330793    1.114138    0.215109
H      0.980910   -1.779033    1.074983
H      2.831050   -0.206880    1.588888
H      3.244175   -1.334777    0.237197
H      4.496177    2.167225   -2.037132
H      4.183818    2.212765    1.671571
H      1.245515   -2.136211   -1.071234
H      0.461252   -0.153628    2.772308
