21

C      2.066516   -1.565831    0.450844
C      2.916542   -0.437998    0.485828
C      2.414937    0.842360    0.187964
C      1.064796    0.952605   -0.142172
C      0.240489   -0.143089   -0.179188
C      0.707390   -1.424248    0.116158
C     -1.015729    0.313836   -0.527665
C     -0.888934    1.692532   -0.670454
N      0.387981    2.075326   -0.440624
C     -2.280837   -0.480951   -0.633070
C     -2.901770   -0.637995    0.717027
O     -3.692673    0.237894    1.156101
O     -2.570157   -1.727111    1.512949
H      2.462921   -2.545346    0.684445
H      3.959987   -0.558962    0.746122
H      3.057139    1.713068    0.217454
H      0.050304   -2.283662    0.090615
H     -1.689392    2.377536   -0.918124
H      0.764404    3.048764   -0.475114
H     -2.991373    0.032752   -1.316103
H     -2.062541   -1.481480   -1.062991
