13

C     -1.904165    0.295007    0.728471
O     -0.585810   -0.197703    0.811016
C     -0.124312   -0.526074   -0.484184
O      1.202360   -1.004451   -0.408704
C      2.092365    0.074683   -0.223731
H     -2.259228    0.527621    1.753362
H     -2.594113   -0.464854    0.298199
H     -1.944676    1.236772    0.137246
H     -0.203960    0.340893   -1.185695
H     -0.744890   -1.347900   -0.906100
H      1.851569    0.650706    0.697367
H      3.118464   -0.330083   -0.105987
H      2.096395    0.745383   -1.111259
