11

C     -1.258691    0.500701   -0.096876
C     -0.417909   -0.768952   -0.026901
O      0.861676   -0.560157   -0.621731
C      1.893159    0.149001    0.001738
O      1.754896    0.615178    1.164252
H     -0.784041    1.312976    0.492044
H     -2.268871    0.302680    0.319299
H     -1.362442    0.828669   -1.152798
H     -0.305619   -1.100110    1.028493
H     -0.940526   -1.573343   -0.586170
H      2.828367    0.293356   -0.521351
