10

C      0.299169    1.140365   -0.331501
C      1.141124    0.047194   -0.318226
N      0.420061   -1.087147   -0.273424
C     -0.876786   -0.731319   -0.257845
C     -0.988470    0.643592   -0.292974
H      0.590547    2.181582   -0.365413
H      2.222448    0.080369   -0.340161
H      0.796256   -2.060764   -0.254329
H     -1.699860   -1.432864   -0.222796
H     -1.904490    1.218993   -0.290761
