13

C     -0.989786   -0.309139   -0.228039
C      0.269757   -1.013807    0.163314
C      1.326246    0.056798   -0.012794
O      0.723015    1.328433    0.064996
C     -0.674114    1.141398    0.071416
H     -1.864969   -0.672140    0.353654
H     -1.176676   -0.440988   -1.317028
H      0.465254   -1.899630   -0.479478
H      0.216209   -1.323728    1.230689
H      1.809780   -0.049900   -1.008186
H      2.107309   -0.036298    0.771672
H     -1.144709    1.804926   -0.685144
H     -1.067315    1.414075    1.074927
