18

C      2.738991    0.624213   -0.367827
C      1.280859    0.797854   -0.061905
O      0.709551    1.807530   -0.444746
C      0.514756   -0.240829    0.718029
C     -0.387019   -1.085852   -0.191007
C     -1.531368   -0.285416   -0.755885
O     -1.495059    0.082917   -1.920015
C     -2.704448    0.093207    0.097568
H      2.892243    0.650745   -1.467016
H      3.120877   -0.344155    0.017723
H      3.317444    1.448304    0.099662
H     -0.087989    0.256781    1.508597
H      1.223805   -0.922005    1.235650
H     -0.799908   -1.933913    0.396696
H      0.218275   -1.522940   -1.015946
H     -3.636164   -0.311851   -0.349713
H     -2.778744    1.199209    0.157384
H     -2.596103   -0.313798    1.125026
