24

C      2.316237    0.740136   -1.202294
N      1.374860    0.414725   -0.118919
C      2.081993    0.458228    1.173266
C      0.768328   -0.915013   -0.348283
C     -0.599378   -1.034179    0.335614
N     -1.538347   -0.031290   -0.220774
C     -1.732100    1.093291    0.710384
C     -2.840158   -0.640562   -0.536949
H      1.774956    0.804956   -2.170648
H      3.117814   -0.028045   -1.283294
H      2.781238    1.734149   -1.025228
H      2.493324    1.475629    1.348716
H      1.383518    0.247609    2.008916
H      2.916667   -0.277420    1.204297
H      1.437480   -1.730842    0.009102
H      0.601749   -1.091367   -1.435740
H     -0.493982   -0.946218    1.439691
H     -0.956804   -2.074136    0.154736
H     -0.759791    1.571416    0.950371
H     -2.370990    1.871805    0.240679
H     -2.210262    0.755060    1.656861
H     -3.530144    0.120488   -0.961533
H     -2.711878   -1.430133   -1.308431
H     -3.304331   -1.088286    0.370254
