20

C     -1.438732    1.004469    0.787462
C     -1.101579    0.058628   -0.372468
C     -2.387102   -0.460294   -1.026568
C     -0.232845   -1.118983    0.108113
O      1.002168   -0.659078    0.656454
C      2.062879   -0.185683   -0.123638
O      2.005603   -0.221399   -1.382886
C      3.298494    0.313200    0.544491
H     -1.997058    0.466245    1.583440
H     -0.508940    1.427257    1.223708
H     -2.060087    1.850433    0.423482
H     -0.537931    0.634005   -1.138803
H     -2.140266   -1.114088   -1.890203
H     -2.991775   -1.041656   -0.297460
H     -2.996711    0.389443   -1.401587
H     -0.030529   -1.821213   -0.730602
H     -0.776875   -1.685543    0.894308
H      3.057058    0.672844    1.566655
H      4.039839   -0.509720    0.612999
H      3.734390    1.152926   -0.036898
