19

C     -1.325030   -1.273704   -0.659012
C     -0.919373    0.005345    0.089090
C     -2.112678    0.966926    0.160331
C      0.285215    0.706252   -0.578303
C      1.581923   -0.099055   -0.462167
O      2.668630    0.680422   -0.950843
N      3.963870    0.202242   -0.963138
O      4.240108   -0.941103   -0.543758
H     -1.533774   -1.054327   -1.728140
H     -2.236589   -1.713933   -0.201155
H     -0.522536   -2.036882   -0.594302
H     -0.646070   -0.269428    1.132184
H     -2.428320    1.275718   -0.859623
H     -1.842018    1.873754    0.742280
H     -2.971091    0.478813    0.669540
H      0.450876    1.689366   -0.084471
H      0.067415    0.901196   -1.651601
H      1.509524   -1.030115   -1.062703
H      1.769918   -0.361488    0.601605
