16

C      2.290880    1.022234   -0.134486
C      1.369458   -0.181097   -0.007341
O      0.036960    0.267445    0.117420
C     -0.825236   -0.845089    0.231445
C     -2.264997   -0.360117    0.378207
O     -2.425454    0.349918    1.576735
H      2.203312    1.664893    0.767216
H      2.018991    1.615845   -1.033056
H      3.343141    0.681185   -0.232939
H      1.492241   -0.811413   -0.917684
H      1.677756   -0.761983    0.891850
H     -0.766943   -1.480630   -0.681681
H     -0.567736   -1.460216    1.124301
H     -2.941795   -1.240507    0.396079
H     -2.549659    0.269717   -0.495740
H     -2.090918    1.269816    1.410999
