12

C      0.222029    1.311612    0.226986
O     -0.961707    0.805815   -0.351370
C     -1.202603   -0.500561    0.144940
O     -0.021569   -1.215084    0.469877
C      1.025018   -0.792553   -0.377283
O      1.359838    0.566006   -0.163890
H      0.357177    2.358356   -0.114728
H      0.146235    1.339942    1.338561
H     -1.839069   -0.430927    1.052536
H     -1.773213   -1.072616   -0.617178
H      0.767463   -0.959632   -1.448681
H      1.920402   -1.410358   -0.159771
