21

C     -2.693588    0.901560    0.058976
C     -2.219811   -0.544554   -0.084230
C     -0.773798   -0.648947   -0.593046
C      0.255006   -0.202914    0.456521
C      1.686483   -0.436240   -0.045207
C      2.729550   -0.014856    0.995585
O      2.660477    1.363386    1.245540
H     -2.144309    1.416870    0.873734
H     -2.549080    1.454560   -0.893423
H     -3.774687    0.911693    0.312124
H     -2.885342   -1.057720   -0.811861
H     -2.321659   -1.068578    0.890923
H     -0.580048   -1.711790   -0.857109
H     -0.656194   -0.044919   -1.519565
H      0.119483    0.877837    0.673545
H      0.097512   -0.777048    1.396023
H      1.854412    0.134127   -0.985031
H      1.827678   -1.516568   -0.267503
H      2.553656   -0.562927    1.945739
H      3.747225   -0.288090    0.635169
H      3.067033    1.815121    0.460455
