19

C      2.467710    0.732704   -0.763224
C      1.869751   -0.645911   -1.020738
O      0.458025   -0.565132   -1.070764
C     -0.103309   -0.905853    0.180950
C     -1.606475   -0.625807    0.164393
C     -1.903753    0.870762    0.022636
O     -3.288034    1.089509    0.006297
H      2.120571    1.448034   -1.538691
H      3.575885    0.672660   -0.799602
H      2.163423    1.105497    0.236995
H      2.228079   -0.998567   -2.010881
H      2.252524   -1.375612   -0.267772
H      0.360824   -0.325390    1.011506
H      0.043920   -1.992022    0.375934
H     -2.050439   -0.997307    1.113593
H     -2.076255   -1.179929   -0.677429
H     -1.478738    1.247599   -0.931869
H     -1.433391    1.440220    0.856865
H     -3.600317    1.004544    0.944981
