25

C      4.226800    0.470630    0.026011
C      3.688406   -0.817454   -0.010657
C      2.302161   -0.998250   -0.039340
C      1.437531    0.113025   -0.030595
C      1.992933    1.406359    0.006964
C      3.379974    1.581117    0.034567
C     -0.035594   -0.075839   -0.060502
C     -0.613594   -1.063890   -0.877658
C     -1.999920   -1.240293   -0.905452
C     -2.834308   -0.435251   -0.118043
C     -2.262527    0.551940    0.699759
C     -0.876283    0.730369    0.727871
N     -4.255431   -0.628100   -0.157077
O     -5.090685    0.127367    0.596574
H      5.300143    0.608240    0.047793
H      4.345674   -1.677421   -0.013427
H      1.906709   -2.006124   -0.050267
H      1.356003    2.281876   -0.003078
H      3.798495    2.579008    0.059162
H      0.004914   -1.688874   -1.509502
H     -2.424580   -2.003911   -1.545036
H     -2.885750    1.183345    1.319774
H     -0.460749    1.487771    1.380633
H     -4.664436   -1.377379   -0.759860
H     -5.335885    0.891740    0.014974
