22

C     -3.528938   -0.605374    0.687410
C     -2.354381    0.223783    0.243242
C     -2.336835    1.537362    0.494587
C     -1.193895   -0.434032   -0.397092
O     -1.191972   -1.686075   -0.554101
O     -0.103919    0.331412   -0.832537
C      1.078619   -0.231624   -1.398507
C      1.956824   -0.861856   -0.314467
O      2.218273    0.070833    0.718119
C      3.460959    0.704072    0.507147
H     -4.438570    0.017272    0.829688
H     -3.765268   -1.376324   -0.076000
H     -3.284022   -1.108246    1.646254
H     -3.168522    2.020625    0.992249
H     -1.494292    2.156215    0.213286
H      1.646126    0.575540   -1.906444
H      0.814091   -0.990764   -2.166486
H      2.878393   -1.289112   -0.777099
H      1.412408   -1.720901    0.130040
H      4.296825   -0.022408    0.611188
H      3.595940    1.485706    1.282579
H      3.502158    1.203897   -0.485705
