23

C      2.882979    1.779809    0.550460
O      2.516957    1.072904   -0.614134
C      2.656138   -0.321488   -0.411003
C      1.319104   -0.941391   -0.009992
O      0.354482   -0.660017   -1.003553
C     -0.931356   -1.072618   -0.579956
C     -1.705569    0.118044   -0.010029
O     -2.990440   -0.293923    0.417813
C     -3.954928   -0.006524   -0.570698
H      3.969806    1.664439    0.757237
H      2.684386    2.858743    0.386416
H      2.283852    1.457448    1.430381
H      3.439234   -0.589581    0.338036
H      2.977578   -0.777345   -1.371667
H      1.016436   -0.530910    0.979599
H      1.458807   -2.041940    0.083835
H     -0.913603   -1.908626    0.159999
H     -1.473275   -1.455278   -1.469828
H     -1.161692    0.503297    0.877629
H     -1.723372    0.952603   -0.751762
H     -4.931129   -0.419528   -0.243678
H     -4.077320    1.092125   -0.694366
H     -3.697074   -0.480243   -1.543687
