35

C     -4.778278    1.398158   -0.187219
C     -4.548584   -0.110780   -0.111823
C     -3.820358   -0.545819    1.172402
C     -2.405333    0.036170    1.342401
C     -1.436619   -0.414270    0.239047
C     -0.004350    0.038637    0.547129
C      0.961385   -0.395006   -0.562176
C      2.393448    0.057261   -0.253447
C      3.360920   -0.382892   -1.362088
C      4.790388    0.119049   -1.119912
C      5.424880   -0.555538    0.061271
O      5.930870   -1.701237   -0.068425
O      5.430759    0.057259    1.311118
H     -5.263993    1.765141    0.741834
H     -5.441525    1.627738   -1.047654
H     -3.818229    1.932932   -0.341812
H     -5.539754   -0.613526   -0.132291
H     -3.994841   -0.451714   -1.011463
H     -3.757303   -1.655803    1.185201
H     -4.433267   -0.247219    2.050777
H     -2.016267   -0.310538    2.324913
H     -2.447141    1.145301    1.382562
H     -1.748598    0.025857   -0.732143
H     -1.461124   -1.523001    0.153817
H      0.322812   -0.405799    1.513044
H      0.018051    1.146860    0.642198
H      0.938387   -1.503149   -0.657541
H      0.635249    0.049885   -1.528233
H      2.712562   -0.384933    0.715320
H      2.417259    1.165584   -0.161886
H      3.363062   -1.492346   -1.444990
H      3.009346    0.029018   -2.333403
H      5.402589   -0.092647   -2.023205
H      4.788593    1.220889   -0.974164
H      5.015004    0.970476    1.450123
