34

C     -4.637405   -0.160740    0.580734
C     -3.828029    0.767335   -0.324064
C     -3.106334    0.019141   -1.458445
C     -2.077460   -1.032214   -0.994744
C     -0.970224   -0.502074   -0.065682
C     -0.094034    0.571669   -0.733172
C      1.049530    1.049214    0.176616
C      2.185748    0.021603    0.291444
C      3.361655    0.592693    1.098191
C      4.490816   -0.431050    1.280202
C      5.168042   -0.760411   -0.018022
O      5.788972    0.095932   -0.627483
H     -5.239339    0.446866    1.288815
H     -5.327300   -0.787605   -0.023265
H     -3.964561   -0.814757    1.173329
H     -4.526582    1.499673   -0.783635
H     -3.104488    1.349732    0.283840
H     -2.607369    0.760793   -2.117267
H     -3.867136   -0.492372   -2.087618
H     -2.608551   -1.860782   -0.479481
H     -1.603154   -1.477781   -1.896295
H     -0.337669   -1.369718    0.214698
H     -1.411506   -0.106954    0.873363
H     -0.722750    1.456731   -0.966494
H      0.319168    0.187260   -1.691344
H      1.461439    1.987566   -0.255926
H      0.652244    1.291484    1.186862
H      1.815330   -0.894012    0.798680
H      2.535261   -0.253911   -0.727367
H      3.759184    1.503661    0.598580
H      2.997613    0.891099    2.105731
H      4.084669   -1.362011    1.731654
H      5.247251   -0.018436    1.981925
H      5.116969   -1.769208   -0.414361
