26

C     -2.559193   -0.807735   -1.333617
C     -2.126520   -0.478949    0.101849
C     -3.015758    0.656435    0.658038
C     -0.643437   -0.087440    0.094747
C     -0.230716    1.172409   -0.386229
C      1.123707    1.512799   -0.430626
C      2.101026    0.602516   -0.020444
C      1.705132   -0.668677    0.430213
C      0.351011   -1.012378    0.475781
O      3.446491    0.994766   -0.082388
C      4.542540    0.170643    0.300978
O     -2.336915   -1.632344    0.884401
H     -3.625862   -1.119159   -1.353692
H     -1.946167   -1.642254   -1.737600
H     -2.436604    0.074618   -1.998317
H     -2.623185    1.012017    1.634912
H     -4.051392    0.285132    0.814946
H     -3.071976    1.517985   -0.039552
H     -0.950989    1.896363   -0.740342
H      1.416432    2.489560   -0.794819
H      2.436262   -1.402493    0.740927
H      0.088558   -2.008760    0.806186
H      4.456723   -0.104325    1.373489
H      5.487574    0.732126    0.152657
H      4.570288   -0.744473   -0.327522
H     -2.107031   -1.408381    1.825172
