45

C      5.964883    1.022578   -0.282608
C      5.215064    1.678004    0.876481
C      4.807104    0.677709    1.972852
C      3.852449   -0.437825    1.509630
C      2.498180    0.097512    1.021123
C      1.524477   -1.055051    0.731879
C      0.118832   -0.563688    0.350250
C      0.071420    0.061060   -1.055567
C     -1.352770    0.471850   -1.462750
C     -2.196275   -0.722345   -1.943759
C     -3.644101   -0.310535   -2.283958
C     -4.662709   -0.684782   -1.193473
C     -4.446440    0.086806    0.117078
C     -5.560226   -0.194770    1.131368
O     -6.794761    0.281168    0.666377
H      6.812032    0.412594    0.096849
H      6.368387    1.810198   -0.953266
H      5.281823    0.381839   -0.878026
H      5.883489    2.438064    1.335939
H      4.327007    2.220651    0.490300
H      5.725097    0.207125    2.387827
H      4.328197    1.239448    2.804290
H      4.329815   -1.047566    0.713406
H      3.680980   -1.112333    2.377058
H      2.062520    0.764080    1.797406
H      2.654873    0.682232    0.092066
H      1.429750   -1.681855    1.645770
H      1.931068   -1.700613   -0.077448
H     -0.563035   -1.438519    0.388955
H     -0.239857    0.171526    1.103663
H      0.699742    0.976469   -1.064986
H      0.491638   -0.644727   -1.805307
H     -1.277052    1.202085   -2.298328
H     -1.847847    0.994226   -0.617634
H     -1.720014   -1.132254   -2.861649
H     -2.195672   -1.538041   -1.191056
H     -3.713251    0.776814   -2.508570
H     -3.945988   -0.842009   -3.213067
H     -4.614719   -1.778518   -0.997448
H     -5.677965   -0.459475   -1.586636
H     -4.403190    1.179025   -0.086690
H     -3.482647   -0.224159    0.573490
H     -5.307737    0.284131    2.104633
H     -5.638495   -1.288810    1.307930
H     -6.774077    1.268813    0.765606
