42

C     -1.550434    4.003358   -0.547105
C     -1.056586    2.692156   -1.064895
O     -0.527121    2.634685   -2.207706
N     -1.144005    1.519359   -0.243855
C     -0.690188    0.200924   -0.706468
C     -1.700134   -0.401848   -1.703071
C     -2.987928   -0.845254   -0.978681
C     -2.686248   -1.641200    0.316846
O     -1.728898   -0.996316    1.148463
C     -0.496695   -0.761401    0.487428
O      0.404035   -0.181045    1.433710
C      1.793545   -0.043931    1.274999
C      2.494107    0.694039    2.234733
C      3.876891    0.868021    2.131519
C      4.589137    0.299479    1.060812
C      3.886984   -0.447422    0.099872
C      2.503584   -0.620678    0.204483
N      6.013196    0.476336    0.948503
O      6.641743    1.140250    1.798936
O      6.706890   -0.083618   -0.099953
C     -2.359028   -3.130825    0.069620
O     -2.044620   -3.771020    1.276763
O     -3.755710    0.283983   -0.643754
O     -1.129869   -1.500636   -2.367269
H     -2.518695    3.861177   -0.023124
H     -1.699868    4.719269   -1.382966
H     -0.808175    4.422578    0.163407
H     -1.514516    1.627225    0.728027
H      0.286735    0.327236   -1.220482
H     -1.974845    0.364328   -2.465209
H     -3.585213   -1.492849   -1.663747
H     -3.636783   -1.652456    0.895211
H     -0.064588   -1.725663    0.147872
H      1.961492    1.139837    3.065350
H      4.388327    1.447476    2.889382
H      4.407425   -0.900566   -0.733997
H      2.004308   -1.207524   -0.552550
H     -1.504671   -3.252032   -0.623489
H     -3.230769   -3.632196   -0.409904
H     -2.900892   -3.898154    1.762995
H     -4.185772    0.601698   -1.480536
H     -0.476148   -1.136781   -3.020173
