18

C     -0.031684    0.891173    0.196231
C     -1.427516    0.318797    0.288938
C     -1.366038   -0.929091   -0.577806
N      0.027978   -1.378644   -0.628290
C      0.844345   -0.340918    0.013150
C      2.057545   -0.033482   -0.820242
O      1.984522   -0.053130   -2.077870
O      3.256622    0.329414   -0.213654
O     -2.387408    1.219203   -0.197292
H      0.238893    1.453320    1.116618
H      0.039962    1.567299   -0.686581
H     -1.654359    0.028166    1.341844
H     -2.031564   -1.722499   -0.169043
H     -1.696085   -0.695920   -1.613744
H      0.116725   -2.265728   -0.077877
H      1.174206   -0.694301    1.018240
H      3.340513    0.382894    0.794407
H     -2.486659    1.923448    0.495321
