12

C     -1.036622    0.085137    0.290041
C     -0.205679   -0.957911   -0.453936
C      1.036624   -0.085139   -0.290035
C      0.205682    0.957914    0.453934
F      0.588701    1.118074    1.775856
F      0.116287    2.165265   -0.219966
F      2.012758   -0.669515    0.500847
F      1.540361    0.377688   -1.494967
F     -0.588696   -1.118052   -1.775863
F     -0.116295   -2.165273    0.219942
F     -2.012769    0.669512   -0.500834
F     -1.540354   -0.377700    1.494982
