28

C      2.443265   -1.433749   -0.554699
C      1.174372   -1.010230    0.197717
C      1.424049    0.269633    1.039576
C      0.815096    1.519913    0.397069
C     -0.717098    1.376369    0.257917
C     -1.192265   -0.040164   -0.218011
C     -0.007416   -0.862148   -0.794494
C     -2.257754    0.121195   -1.324136
C     -1.843146   -0.809620    0.956064
O      1.122235    2.639572    1.186009
H      3.261007   -1.651078    0.165280
H      2.250099   -2.355154   -1.144771
H      2.776218   -0.627700   -1.243443
H      0.928984   -1.836535    0.901745
H      2.512681    0.435481    1.198419
H      0.981322    0.137908    2.051285
H      1.269109    1.647395   -0.614046
H     -1.052863    2.164992   -0.451719
H     -1.191398    1.633083    1.231615
H     -0.355119   -1.875202   -1.097329
H      0.353185   -0.359963   -1.720907
H     -1.833726    0.651613   -2.204202
H     -3.124335    0.708419   -0.949953
H     -2.627930   -0.870652   -1.663449
H     -2.750200   -0.277611    1.316315
H     -2.145706   -1.830651    0.637782
H     -1.147497   -0.905892    1.814218
H      0.934830    3.440773    0.630149
