26

C      3.892132   -0.283656    1.095969
C      2.827030   -0.758716    1.866177
C      1.554857   -0.886904    1.299870
C      1.342714   -0.548685   -0.047366
C      2.415398   -0.058549   -0.811208
C      3.685975    0.068051   -0.240885
C     -0.033626   -0.652900   -0.648447
C     -0.820961    0.644091   -0.415603
C     -2.182702    0.650356   -1.131882
C     -3.197519   -0.340117   -0.542581
N     -3.455453   -0.051461    0.865509
H      4.875854   -0.183803    1.536168
H      2.986377   -1.024429    2.903230
H      0.735797   -1.247413    1.909954
H      2.267035    0.226309   -1.845504
H      4.510098    0.442177   -0.834459
H      0.046988   -0.854842   -1.739205
H     -0.567375   -1.512142   -0.189719
H     -0.226517    1.498323   -0.808565
H     -0.961208    0.811203    0.674538
H     -2.610103    1.674903   -1.069738
H     -2.036266    0.422547   -2.210155
H     -4.147615   -0.267723   -1.117613
H     -2.824677   -1.380630   -0.649318
H     -4.106972   -0.785284    1.226635
H     -3.969259    0.857843    0.924199
