42

C     -0.768100    4.408422    1.032001
C     -0.598612    3.227691    0.132907
O      0.347915    3.209966   -0.699569
N     -1.522829    2.133325    0.209525
C     -1.369366    0.913685   -0.594678
C     -2.721727    0.150396   -0.700754
C     -2.891769   -0.906773    0.413719
C     -1.602116   -1.772555    0.603360
O     -0.533308   -1.342505   -0.223423
C     -0.256829    0.024806    0.013438
O      0.989391    0.358733   -0.596445
C      2.243257   -0.150206   -0.218495
C      2.378564   -1.039570    0.868271
C      3.635063   -1.514258    1.245094
C      4.772079   -1.110701    0.549469
C      4.657298   -0.234370   -0.530019
C      3.398001    0.251607   -0.933491
N      3.308067    1.147746   -2.061094
O      4.334473    1.695295   -2.514977
O      2.110265    1.368961   -2.701065
C     -1.872209   -3.256196    0.325221
O     -2.226793   -3.446229   -1.016924
O     -3.201311   -0.250040    1.616792
O     -2.872731   -0.442802   -1.969364
H     -1.724306    4.920033    0.794964
H      0.069247    5.126366    0.898035
H     -0.786010    4.070868    2.089457
H     -2.316127    2.209524    0.886044
H     -1.080626    1.212041   -1.628403
H     -3.555133    0.881761   -0.608374
H     -3.762042   -1.545731    0.129872
H     -1.274506   -1.723224    1.668743
H     -0.173316    0.233173    1.107602
H      1.519237   -1.368051    1.435390
H      3.727354   -2.194814    2.081851
H      5.745707   -1.479604    0.845519
H      5.555948    0.056710   -1.058722
H     -0.952547   -3.840856    0.552986
H     -2.689420   -3.618277    0.989280
H     -2.389306   -4.419373   -1.123375
H     -3.572699   -0.936783    2.230583
H     -2.078130   -1.008189   -2.146969
