18

C      1.902322   -0.554804    0.311209
C      0.831572    0.472233   -0.086483
C     -0.472832   -0.205564   -0.550266
C     -1.249057   -0.852139    0.572226
O     -0.864864   -1.833954    1.260802
C     -2.541432   -0.215553    0.689290
O     -3.453969   -0.491799    1.511496
C     -2.573780    0.788096   -0.340046
O     -3.535180    1.564888   -0.577063
O     -1.380960    0.785618   -1.052944
O      0.564807    1.336790    0.989430
O      3.126571    0.094699    0.515575
H      1.601390   -1.076455    1.246055
H      2.017969   -1.307731   -0.500676
H      1.219345    1.058199   -0.953314
H     -0.269320   -0.951013   -1.349424
H      1.302074    2.001115    1.016950
H      3.775343   -0.612627    0.768280
