20

C     -2.875417    1.229802   -0.405946
C     -3.124041   -0.077255    0.067138
C     -2.067125   -0.992050    0.223300
C     -0.781196   -0.567910   -0.107100
C     -0.538458    0.708198   -0.568986
C     -1.567436    1.634884   -0.727512
C      0.897167    0.829336   -0.796475
O      1.494872    1.872999   -1.170691
N      1.548661   -0.408962   -0.501089
C      0.499100   -1.263361   -0.039022
O      0.675429   -2.434936    0.388576
C      2.972880   -0.587470   -0.245797
O      3.268890   -0.171999    1.057614
H     -3.696395    1.925718   -0.519453
H     -4.134338   -0.376611    0.313866
H     -2.247916   -1.994037    0.590061
H     -1.367161    2.636215   -1.085846
H      3.240357   -1.659894   -0.372704
H      3.558348    0.011824   -0.977791
H      4.243777   -0.314491    1.176286
