27

C     -0.315325    3.216407   -2.133812
O     -0.943947    2.191478   -1.370644
C     -0.266449    1.136688   -0.736405
C      1.131348    1.004851   -0.807002
C      1.784077   -0.055487   -0.166192
C      1.024460   -0.990729    0.551425
C     -0.377440   -0.878900    0.635983
C     -1.026610    0.199879   -0.017672
O     -2.420337    0.402620    0.004628
C     -3.386816   -0.409072    0.662550
O     -1.132144   -1.818818    1.356181
C     -0.596475   -2.940370    2.051630
C      3.257679   -0.183161   -0.248248
O      3.850046   -1.136141    0.327046
O      4.005197    0.749647   -0.962858
H     -1.091058    3.911884   -2.514429
H      0.391929    3.788085   -1.496491
H      0.220300    2.773780   -3.000062
H      1.713995    1.727717   -1.361149
H      1.531348   -1.808232    1.045059
H     -4.394141    0.020911    0.487471
H     -3.200553   -0.418768    1.757027
H     -3.373051   -1.438137    0.246017
H      0.099870   -2.600239    2.846950
H     -1.427339   -3.502053    2.525388
H     -0.071851   -3.615056    1.342622
H      5.013288    0.671217   -1.025012
