49

C     -3.562619    1.372649    1.188129
C     -4.311658    0.613579    0.117062
C     -3.670391   -0.220327   -0.726639
C     -2.182302   -0.459480   -0.655906
C     -1.714963   -1.770840   -1.303939
C     -1.701749   -1.617310    0.225632
C     -0.365868   -1.375209    0.942977
C     -2.751704   -2.447746    0.979178
C     -0.406340   -1.649620   -2.022335
O      0.496532   -2.507203   -1.830093
O     -0.214554   -0.598784   -2.923253
C      1.054099   -0.274380   -3.482605
N      1.951994    0.198577   -2.435629
C      3.121449   -0.437725   -1.930373
O      3.670162   -1.439724   -2.462032
C      3.575532    0.237428   -0.714669
C      2.750571    1.255681   -0.475458
C      1.709343    1.246493   -1.501253
O      0.726162    2.033509   -1.557530
C      2.847746    2.152108    0.724372
C      4.269180    2.116335    1.315246
C      4.789727    0.671516    1.437803
C      4.830509   -0.029075    0.065791
C     -5.804801    0.776297   -0.014812
H     -3.059060    0.662735    1.877429
H     -4.244652    2.011528    1.788978
H     -2.800297    2.030593    0.719826
H     -4.241268   -0.746038   -1.490248
H     -1.497073    0.405450   -0.769640
H     -2.508017   -2.407662   -1.747261
H      0.163836   -2.342246    1.073340
H      0.294744   -0.675972    0.388623
H     -0.561992   -0.936108    1.944915
H     -2.296145   -3.405684    1.301452
H     -3.087273   -1.892325    1.882857
H     -3.640987   -2.681852    0.354565
H      1.482807   -1.158924   -4.001034
H      0.918447    0.533309   -4.232444
H      2.117767    1.805627    1.489651
H      2.589278    3.193583    0.432968
H      4.955020    2.699967    0.660666
H      4.264346    2.594195    2.318080
H      4.132590    0.098918    2.131188
H      5.815149    0.683903    1.869992
H      4.961752   -1.121763    0.209677
H      5.696868    0.354648   -0.516727
H     -6.046945    1.238822   -0.995672
H     -6.216799    1.424010    0.789791
H     -6.298154   -0.215464    0.052101
