28

C     -2.863342   -1.596100   -1.086688
C     -3.105766   -0.343611   -0.519167
C     -2.310827    0.113650    0.535775
C     -1.259186   -0.677328    1.034228
C     -1.028682   -1.942743    0.456667
C     -1.826894   -2.394639   -0.598689
C     -0.409335   -0.142233    2.174114
C      0.363913    1.084254    1.746768
O      0.225195    2.136291    2.429176
C      1.257958    1.113562    0.555832
C      1.557935    2.346005   -0.056926
C      2.388222    2.399368   -1.180479
C      2.934275    1.226569   -1.704132
C      2.654461   -0.001301   -1.102328
C      1.825025   -0.060618    0.021762
O      0.479823   -1.104452    2.680752
H     -3.479423   -1.948507   -1.903817
H     -3.910095    0.274231   -0.897058
H     -2.511327    1.088286    0.963698
H     -0.233919   -2.584081    0.813690
H     -1.641324   -3.365996   -1.038673
H     -1.106024    0.160414    2.992303
H      1.140144    3.269230    0.325071
H      2.606827    3.351616   -1.646329
H      3.577073    1.269559   -2.573864
H      3.085003   -0.909429   -1.504302
H      1.649522   -1.024430    0.473438
H     -0.059231   -1.737569    3.224004
