22

C     -2.166984   -0.663926    0.066312
C     -2.007070    0.649799    0.830930
C     -0.893309    1.497500    0.209134
C      0.372174    0.707952   -0.031648
C      1.570063    1.401718   -0.268013
C      2.746212    0.706172   -0.556726
C      2.736918   -0.687616   -0.621903
C      1.550545   -1.391158   -0.402784
C      0.356876   -0.705485   -0.125069
C     -0.890633   -1.503538    0.174334
H     -2.389407   -0.452743   -1.003100
H     -3.020464   -1.236981    0.488553
H     -2.962358    1.216733    0.797496
H     -1.769029    0.438672    1.896985
H     -0.681503    2.355913    0.883238
H     -1.244959    1.904765   -0.763643
H      1.591620    2.484049   -0.231184
H      3.665999    1.249050   -0.732250
H      3.651079   -1.224288   -0.840597
H      1.562065   -2.473376   -0.446727
H     -0.968992   -2.361497   -0.528456
H     -0.808842   -1.911714    1.205120
