28

C     -3.811965    2.035367   -0.740406
O     -3.188752    0.844902   -0.269236
C     -1.806813    0.695362   -0.071791
C     -1.329653   -0.538648    0.397810
C      0.052140   -0.717367    0.607104
C      0.952610    0.329345    0.359088
C      0.469645    1.552887   -0.123065
C     -0.897839    1.738383   -0.332380
C      2.431474    0.120942    0.551590
C      3.071227   -0.420183   -0.728658
N      4.499470   -0.638481   -0.523508
O     -2.258779   -1.562462    0.642559
C     -1.921695   -2.862049    1.116992
H     -3.614992    2.873082   -0.038520
H     -3.435199    2.288220   -1.753969
H     -4.907459    1.871872   -0.799523
H      0.435422   -1.665485    0.960136
H      1.153689    2.364638   -0.338350
H     -1.238021    2.696537   -0.700499
H      2.608172   -0.593664    1.385418
H      2.915050    1.082221    0.833085
H      2.916100    0.298721   -1.564819
H      2.591064   -1.386392   -1.000217
H      4.881207   -1.080453   -1.390966
H      4.963884    0.295044   -0.437817
H     -1.248737   -3.369838    0.394144
H     -1.432250   -2.790637    2.111256
H     -2.849001   -3.461862    1.220171
