29

C     -2.506016    0.908202    0.982956
C     -1.833802    0.307973   -0.273025
C     -1.945158    1.371817   -1.395627
C     -2.624137   -0.932213   -0.749415
C     -0.366177   -0.086278    0.045745
C     -0.062081   -1.049679    1.048495
C      1.268226   -1.393674    1.323227
C      2.316143   -0.803496    0.624779
C      2.050644    0.148167   -0.368127
C      0.725563    0.497216   -0.648582
O      3.072014    0.772317   -1.100855
C      4.461735    0.516904   -0.924282
O     -1.072019   -1.673060    1.779625
H     -1.904623    1.757874    1.372635
H     -3.524514    1.284229    0.743528
H     -2.624756    0.164556    1.794592
H     -3.008495    1.628417   -1.595743
H     -1.430173    2.312941   -1.104372
H     -1.514934    0.992066   -2.347704
H     -3.648433   -0.646431   -1.073766
H     -2.107989   -1.410539   -1.609799
H     -2.743723   -1.689331    0.049543
H      1.492177   -2.127393    2.087433
H      3.329479   -1.094820    0.865167
H      0.579515    1.234889   -1.422296
H      4.768671    0.774102    0.111508
H      4.683643   -0.550535   -1.135358
H      5.038754    1.146296   -1.632278
H     -0.869533   -2.360518    2.496153
