19

C     -2.433512    0.923395   -0.099780
C     -0.975758    0.554002   -0.032464
C     -0.545384   -0.795990    0.000296
C      0.833840   -1.076098    0.008341
C      1.785949   -0.043744    0.018563
C      1.343712    1.287792    0.018824
C     -0.019578    1.581662   -0.004755
N      3.192860   -0.349706    0.036297
O      4.043400    0.564367    0.050545
O      3.625300   -1.656226    0.035154
N     -1.483670   -1.888205    0.022051
O     -1.179207   -2.986455   -0.487928
O     -2.649675   -1.797679    0.746403
H     -2.893915    0.814832    0.904273
H     -2.963115    0.275600   -0.829680
H     -2.569155    1.974367   -0.433611
H      1.163600   -2.106888    0.027162
H      2.053276    2.105198    0.032601
H     -0.328970    2.619777   -0.012292
