22

C      2.802501   -1.058896    0.126449
C      2.489143    0.290099   -0.511962
O      1.489216    0.984155    0.234584
C      0.113811    0.691381    0.240504
C     -0.720054    1.398044    1.127021
C     -2.092520    1.135017    1.159167
C     -2.648398    0.173436    0.314450
C     -1.836403   -0.538363   -0.578115
C     -0.455748   -0.275542   -0.614022
C     -2.444474   -1.548863   -1.464156
O     -1.744085   -2.208101   -2.277763
O     -0.201396    2.366335    1.986794
H      3.612451   -1.561444   -0.442885
H      3.138495   -0.911143    1.174552
H      1.907232   -1.713705    0.124152
H      2.182676    0.169911   -1.572416
H      3.415335    0.902394   -0.504477
H     -2.731239    1.679270    1.843346
H     -3.714530   -0.013991    0.357149
H      0.163794   -0.823301   -1.309134
H     -3.510240   -1.734519   -1.421642
H      0.784435    2.597827    2.008405
