21

C      3.042190    0.403419   -0.875706
S      2.536438   -0.978394    0.167827
O      2.219788   -2.094900   -0.818949
C      0.935305   -0.521443    0.886948
C     -0.156746   -0.358970   -0.180642
C     -1.490579    0.139989    0.409723
C     -2.421159    0.514639   -0.715871
O     -3.035084   -0.381986   -1.353542
O     -2.574481    1.845302   -1.095375
N     -2.110139   -0.892546    1.245930
H      2.964709    1.350394   -0.302880
H      2.399873    0.461127   -1.778122
H      4.094676    0.254665   -1.192964
H      1.061623    0.428315    1.448942
H      0.651641   -1.320069    1.602718
H     -0.320317   -1.329557   -0.698304
H      0.192451    0.379232   -0.933920
H     -1.302022    1.046689    1.028618
H     -2.074992    2.588927   -0.622613
H     -1.559191   -0.980745    2.129626
H     -3.053982   -0.554088    1.545882
