40

C      5.088671    0.711957    0.490403
C      4.805232   -0.660965   -0.153007
C      3.710012   -0.567761   -1.220201
C      2.367733   -0.089509   -0.618695
C      2.551496    0.856058    0.593330
C      3.861677    1.646424    0.508621
N      1.592511    0.588725   -1.656721
C      0.433173    0.191097   -1.997847
N     -0.728819   -0.207181   -2.330459
C     -1.862476   -0.112853   -1.416550
C     -1.690125   -1.078841   -0.229434
N     -2.771010   -0.985263    0.776438
C     -4.096234   -1.448957    0.314257
C     -4.978586   -0.308155   -0.249199
O     -4.429529    0.979538   -0.048071
C     -4.031735    1.118765    1.295694
C     -2.782691    0.269238    1.563374
H      5.443805    0.549421    1.531396
H      5.910213    1.216291   -0.063592
H      5.738111   -1.056991   -0.609353
H      4.483467   -1.380566    0.631986
H      4.050195    0.135490   -2.013151
H      3.569128   -1.562875   -1.695284
H      1.815911   -0.988833   -0.255743
H      1.694424    1.560778    0.669241
H      2.560641    0.256091    1.530368
H      3.850556    2.264380   -0.416255
H      3.935788    2.339459    1.374371
H     -1.965013    0.936029   -1.064524
H     -2.776432   -0.384025   -1.981567
H     -1.632852   -2.120347   -0.614703
H     -0.717283   -0.882508    0.271823
H     -3.994387   -2.259342   -0.441232
H     -4.620869   -1.902534    1.182846
H     -5.997904   -0.357164    0.195266
H     -5.108128   -0.459199   -1.341550
H     -4.855048    0.838793    1.994228
H     -3.795561    2.186388    1.489994
H     -2.751825    0.010728    2.643065
H     -1.876238    0.882538    1.360439
