27

C     -2.473773    0.665942   -0.960616
N     -1.458974   -0.100822   -0.195660
C     -1.951087   -0.261407    1.192950
C     -1.316743   -1.434671   -0.830231
C     -0.172443    0.664297   -0.246326
C      1.000536    0.084706    0.600526
C      2.344343    0.691879    0.149951
C      3.488336    0.115926    0.931445
O      3.960657    0.747700    1.912892
O      4.010854   -1.131968    0.604790
O      0.801468    0.320482    1.973836
H     -3.455438    0.140401   -0.975825
H     -2.639984    1.671088   -0.511324
H     -2.153667    0.811188   -2.017190
H     -1.315274   -0.965635    1.771348
H     -2.981294   -0.683379    1.206792
H     -1.973587    0.716709    1.723293
H     -0.863949   -1.351236   -1.843305
H     -2.306403   -1.933014   -0.939159
H     -0.689809   -2.119112   -0.221828
H      0.164299    0.734105   -1.306759
H     -0.340544    1.716869    0.079567
H      1.073688   -1.009356    0.445023
H      2.324631    1.797083    0.274370
H      2.511637    0.477472   -0.927836
H      3.638686   -1.668782   -0.169518
H      0.773835    1.303534    2.111636
