41

C     -3.820096    1.388747    1.684550
C     -3.752816   -0.015035    1.055988
C     -5.171573   -0.607441    0.979862
C     -2.995650   -0.020441   -0.313841
C     -2.614876   -1.408880   -0.738095
O     -3.411841   -2.330297   -1.057742
N     -1.210961   -1.548303   -0.793084
C     -0.733158   -0.260659   -0.432874
N     -1.670884    0.588989   -0.147981
C      0.695322    0.067465   -0.270877
C      1.704830   -0.418520   -1.140632
C      3.045466   -0.144370   -0.824257
C      3.371659    0.641616    0.287370
C      2.338711    1.123623    1.096506
N      1.047540    0.827059    0.802498
C      4.806546    0.916681    0.634813
O      5.283606   -0.125359    1.458411
C      6.632279    0.119099    1.788446
C      1.411335   -1.133309   -2.404370
O      0.355996   -0.891423   -3.049698
O      2.331668   -2.043237   -2.917795
C     -3.744243    0.696377   -1.451549
H     -2.804356    1.820634    1.802204
H     -4.436999    2.075408    1.068519
H     -4.274478    1.329345    2.696752
H     -3.172626   -0.650469    1.763213
H     -5.612869   -0.659512    1.998201
H     -5.156238   -1.638964    0.576945
H     -5.835601    0.021537    0.350794
H     -0.663091   -2.419661   -0.968004
H      3.839983   -0.512478   -1.463051
H      2.558429    1.724259    1.969806
H      5.401885    0.983834   -0.305149
H      4.874450    1.898360    1.158462
H      7.273121    0.137105    0.878842
H      6.992788   -0.706504    2.435720
H      6.742006    1.067111    2.360833
H      2.153913   -2.526625   -3.790117
H     -3.962018    1.749533   -1.180718
H     -3.121487    0.706760   -2.372481
H     -4.695670    0.177943   -1.692305
