40

C     -3.959095   -0.157715   -0.096728
C     -3.085157    0.684768    0.800655
C     -2.087950    1.455801    0.314024
C     -1.732783    1.583651   -1.149149
C     -1.097865    0.323477   -1.696931
C      0.136625   -0.179450   -1.207086
C      0.653718   -1.381530   -1.729994
C     -0.030137   -2.059855   -2.745524
C     -1.227158   -1.551882   -3.245105
C     -1.756895   -0.369946   -2.728372
N      1.888405   -1.906490   -1.224157
C      2.580126   -1.260138   -0.147473
C      3.768745   -1.807740    0.349617
C      4.447257   -1.180331    1.392593
C      3.936379   -0.012337    1.959120
C      2.738956    0.550284    1.485150
C      2.064500   -0.069393    0.401415
N      0.888971    0.514639   -0.192764
C      2.198188    1.743380    2.174330
O      0.969730    1.817202    2.441761
O      3.039240    2.778753    2.575985
C     -3.327295    0.680291    2.288033
H     -3.360529   -0.975798   -0.545739
H     -4.406259    0.466442   -0.898108
H     -4.792033   -0.622870    0.470091
H     -1.509936    2.057214    1.011084
H     -2.641360    1.868025   -1.722261
H     -1.020474    2.425646   -1.279701
H      0.367498   -2.981378   -3.151756
H     -1.750036   -2.078832   -4.032842
H     -2.694411   -0.002465   -3.127151
H      2.279026   -2.786538   -1.631963
H      4.170330   -2.719551   -0.074278
H      5.365508   -1.608451    1.773636
H      4.464319    0.435909    2.791838
H      0.648397    1.502255    0.031863
H      4.027136    2.777913    2.352609
H     -2.410467    0.341418    2.815769
H     -3.584605    1.705298    2.629587
H     -4.158606    0.000325    2.567922
