27

C     -0.752432   -2.891397   -0.283261
C     -1.265099   -1.522180    0.090593
C     -0.437410   -0.366138    0.044931
C      0.921304   -0.455873   -0.321539
C      1.740128    0.682729   -0.344057
C      1.196672    1.924209   -0.022469
C     -0.155750    2.064050    0.318726
C     -0.980891    0.907248    0.388878
C     -2.318795    0.976691    0.831483
C     -3.114724   -0.164059    0.880787
C     -2.598931   -1.399311    0.505825
C     -0.655636    3.437986    0.559779
O     -1.771507    3.807374    0.107901
O      0.144111    4.361083    1.223365
O      3.099902    0.626080   -0.688037
C      3.796108   -0.564877   -1.041434
H     -1.548445   -3.663602   -0.218302
H      0.066133   -3.187849    0.405839
H     -0.377159   -2.881619   -1.328221
H      1.353519   -1.410854   -0.578890
H      1.837762    2.796970   -0.069578
H     -2.760992    1.900927    1.171667
H     -4.140228   -0.090728    1.220009
H     -3.244498   -2.267743    0.554019
H      3.770562   -1.286943   -0.198083
H      3.342384   -1.017926   -1.948149
H      4.853913   -0.314249   -1.261782
