49

C      5.660586   -0.206016    0.990941
C      6.507686    0.523618    1.829693
C      6.150183    1.808082    2.246469
C      4.937845    2.367544    1.828231
C      4.086136    1.636695    0.987408
C      4.442181    0.347381    0.550613
C      3.515826   -0.407407   -0.331041
C      3.974152   -1.390121   -1.219058
C      3.061128   -2.071522   -2.024990
O      3.508288   -2.903120   -2.856628
C      1.678712   -1.788000   -1.916472
C      0.654270   -2.447838   -2.656454
C     -0.668707   -2.002390   -2.551448
C     -1.022378   -0.963324   -1.690018
C     -0.026760   -0.344649   -0.919665
C      1.306898   -0.744873   -1.028829
O      2.218593   -0.122197   -0.289095
O     -2.372975   -0.584105   -1.628186
C     -2.905145    0.422709   -0.766776
C     -4.404493    0.649698   -1.133671
C     -5.348131    0.035832   -0.078630
C     -4.965621    0.465512    1.365763
C     -3.464443    0.825715    1.462128
O     -2.715498    0.012809    0.581430
C     -2.965524    0.628610    2.863092
O     -2.643216   -0.519352    3.269653
O     -2.905215    1.707141    3.736657
O     -5.725178    1.581687    1.756107
O     -5.380717   -1.366751   -0.199689
O     -4.670947    2.026379   -1.231020
O      0.876306   -3.553483   -3.482828
O      4.585407    3.648049    2.250880
O      7.000495    2.525404    3.079862
H      5.952832   -1.209385    0.712373
H      7.440799    0.086693    2.162267
H      3.152103    2.082350    0.667180
H      5.030906   -1.602188   -1.320984
H     -1.441809   -2.494137   -3.129453
H     -0.270737    0.459649   -0.239060
H     -2.337582    1.364138   -0.948545
H     -4.633548    0.171420   -2.115864
H     -6.379143    0.392013   -0.297871
H     -5.186454   -0.386084    2.054420
H     -3.314920    1.903969    1.212133
H     -6.632812    1.248201    1.982095
H     -4.487612   -1.720473    0.047355
H     -4.282596    2.333962   -2.091676
H      1.696434   -4.139573   -3.453748
H      3.714391    4.079875    1.964946
