50

C     -4.967631   -1.728131    1.625228
C     -4.868102   -1.298050    0.158431
C     -5.618701    0.042482   -0.103770
C     -4.997204    0.759853   -1.309506
C     -3.482872    0.986388   -1.101023
C     -2.894545   -0.024030   -0.093363
O     -3.506379   -1.291913   -0.263743
O     -1.505588   -0.143200   -0.335186
C     -0.836861   -0.693975    0.786037
C     -0.264989    0.413981    1.683478
C      0.575576    1.460965    0.926736
C      1.798296    0.898126    0.179094
C      2.850801    0.299006    1.125972
C      4.074760   -0.254680    0.380166
C      4.929963    0.846600   -0.266067
C      6.256875    0.308497   -0.720279
C      6.352916   -0.558953   -1.733883
C      7.646499   -1.105931   -2.182886
O      8.722602   -0.749926   -1.632396
O      7.689365   -2.037268   -3.217414
O     -3.245702    2.287676   -0.630150
O     -6.995557   -0.171875   -0.294252
H     -4.481234   -0.984517    2.290687
H     -6.033366   -1.831908    1.920553
H     -4.467073   -2.708990    1.763413
H     -5.371225   -2.090177   -0.438736
H     -5.503819    0.711921    0.777562
H     -5.145496    0.135965   -2.217887
H     -5.518232    1.725972   -1.482962
H     -2.971721    0.847399   -2.083395
H     -3.078858    0.367854    0.937671
H     -1.481306   -1.371588    1.396147
H     -0.006470   -1.331444    0.418403
H      0.334038   -0.045037    2.496874
H     -1.108316    0.941932    2.177245
H      0.920220    2.228729    1.652959
H     -0.076323    1.985825    0.194383
H      1.480426    0.143753   -0.570442
H      2.253311    1.741404   -0.381332
H      2.399416   -0.543970    1.687374
H      3.175597    1.062923    1.864235
H      3.742291   -0.981563   -0.392509
H      4.698504   -0.808517    1.116028
H      4.400914    1.289761   -1.136266
H      5.115370    1.653658    0.474767
H      7.148207    0.653737   -0.211403
H      5.454055   -0.888894   -2.241106
H      6.844542   -2.343527   -3.685885
H     -3.328072    2.896769   -1.409169
H     -7.108903   -0.703109   -1.126745
