16

C     -0.959128    0.727089   -0.409757
C     -0.820860   -0.680599    0.201510
C      0.555934   -1.274578   -0.129133
C      1.650693   -0.316441    0.247308
O      2.804367   -0.751883    0.503263
C      1.396400    1.134470    0.268351
C      0.182801    1.626322   -0.006539
O     -0.020971    3.000679    0.033572
O     -1.821214   -1.524921   -0.303693
H     -0.980871    0.654954   -1.518827
H     -1.916676    1.179840   -0.073554
H     -0.915452   -0.608463    1.311303
H      0.625395   -1.485533   -1.218394
H      0.687074   -2.230404    0.423215
H      2.201851    1.809236    0.532003
H     -2.669346   -1.259768    0.139372
