26

C     -3.916939   -0.695552    1.289532
C     -3.990861    0.581754    0.729777
C     -2.877738    1.131651    0.086427
C     -1.672728    0.409341    0.003689
C     -1.614528   -0.882628    0.561770
C     -2.730744   -1.427528    1.203709
C     -0.499082    0.995968   -0.691407
O     -0.679550    1.902471   -1.549675
C      0.885187    0.543535   -0.417178
C      1.740904    0.201882   -1.483841
C      3.053265   -0.217078   -1.222506
C      3.522356   -0.295812    0.093984
C      2.680420    0.052404    1.152388
C      1.371928    0.478473    0.904838
O      0.569114    0.852858    1.977651
O      4.823702   -0.715658    0.360409
O      1.281928    0.265856   -2.799837
H     -4.779957   -1.119626    1.786355
H     -4.911732    1.146917    0.794128
H     -2.956078    2.125159   -0.337407
H     -0.712200   -1.476699    0.492732
H     -2.676984   -2.420485    1.631133
H      3.707190   -0.484651   -2.043026
H      3.046442    0.000786    2.170256
H      5.459901   -0.974371   -0.384721
H      1.876783    0.021035   -3.582826
