39

C      4.806898   -0.199374   -0.663624
C      5.772735    0.084940    0.299637
C      5.384023    0.569017    1.549909
C      4.034019    0.777682    1.848404
C      3.047011    0.563848    0.847005
C      3.444519    0.026594   -0.401192
C      2.428910   -0.307343   -1.428026
O      2.791899   -0.725141   -2.562303
C      0.988657   -0.173037   -1.119817
C      0.018622   -0.620526   -2.041678
C     -1.325469   -0.482925   -1.717171
C     -1.731125    0.053353   -0.531602
C     -3.227236    0.077433   -0.471347
C     -3.624424   -0.513059   -1.862464
O     -2.393794   -0.831650   -2.511962
O     -4.321681    0.444886   -2.610876
C     -3.755604   -0.776185    0.702173
C     -5.273839   -0.644270    0.884567
O     -5.627347    0.675500    1.200792
C     -0.803189    0.543348    0.393343
C      0.581171    0.423720    0.103024
C      1.616871    0.937664    1.035626
O      1.290379    1.765901    1.927184
O     -1.248916    1.135803    1.570554
O      3.722540    1.159044    3.155669
O      7.118062   -0.131406    0.008895
H      5.126422   -0.597064   -1.619087
H      6.133468    0.756311    2.309061
H      0.297947   -1.061199   -2.990262
H     -3.563213    1.133211   -0.368424
H     -4.233701   -1.440211   -1.766917
H     -4.576883    0.000762   -3.460893
H     -3.499253   -1.846002    0.537257
H     -3.266886   -0.464811    1.649588
H     -5.611261   -1.333677    1.691416
H     -5.801052   -0.943384   -0.044921
H     -5.363797    0.821602    2.146782
H      2.799642    1.079813    3.558680
H      7.844877    0.060833    0.688397
