50

C     -2.482015   -0.086387   -2.360618
C     -3.125482    0.665267   -1.189103
C     -4.531494    0.100936   -0.840473
C     -4.834911    0.364081    0.641369
C     -3.751012   -0.252264    1.546637
C     -2.400478   -0.377599    0.802734
O     -2.230951    0.718709   -0.081321
O     -1.359094   -0.365412    1.759656
C     -0.143534   -0.855870    1.215657
C      0.063221   -2.297689    1.688595
C      1.018655    0.030517    1.706324
C      0.936114    1.483953    1.197192
C      1.095569    1.655550   -0.328494
C      2.409365    1.107183   -0.913992
C      3.648831    1.835980   -0.380146
C      4.896307    1.355248   -1.064566
C      5.420793    0.153301   -0.788330
C      6.657814   -0.331682   -1.427723
O      7.232654    0.348848   -2.323474
O      7.198529   -1.560032   -1.053216
O     -4.173090   -1.517648    1.985857
O     -5.500601    0.714681   -1.651375
H     -1.507011    0.379480   -2.615920
H     -3.139975   -0.036714   -3.254880
H     -2.310017   -1.152710   -2.100744
H     -3.262660    1.717629   -1.524255
H     -4.547418   -1.002788   -1.011258
H     -4.874542    1.463929    0.812372
H     -5.834606   -0.047143    0.904243
H     -3.630845    0.420679    2.427834
H     -2.399950   -1.345841    0.242467
H     -0.124888   -0.868000    0.100377
H      1.019463   -2.701795    1.293234
H      0.082163   -2.344269    2.798658
H     -0.766335   -2.939228    1.320593
H      0.998731    0.057130    2.818045
H      1.995018   -0.415703    1.424877
H      1.710948    2.087845    1.717745
H     -0.042530    1.918673    1.496559
H      1.023170    2.739268   -0.566410
H      0.246490    1.170186   -0.851363
H      2.370531    1.240787   -2.015778
H      2.488842    0.018123   -0.728514
H      3.539999    2.924413   -0.567304
H      3.753221    1.682595    0.713433
H      5.394493    2.025749   -1.751921
H      4.927817   -0.493885   -0.066934
H      6.760876   -2.136364   -0.345221
H     -3.584800   -1.768725    2.745937
H     -6.331374    0.179995   -1.557065
