34

C     -1.737205    0.264558   -2.702483
C     -2.015973    0.868860   -1.315071
C     -3.142806    0.142221   -0.546134
C     -2.634801   -1.176100    0.053356
C     -1.329783   -0.952283    0.818951
C     -0.314799   -0.232278   -0.086865
O     -0.835105    1.012489   -0.535629
O      0.855725    0.012726    0.669974
C      1.959216    0.330362   -0.165153
C      2.812454   -0.923895   -0.393064
C      2.778874    1.458368    0.485799
C      3.244423    1.110449    1.868584
O      2.474990    1.270738    2.853650
O      4.517291    0.582029    2.059496
O     -0.820238   -2.196365    1.224883
O     -3.610710    0.982193    0.478736
H     -0.857002    0.763934   -3.159861
H     -1.545877   -0.826127   -2.652450
H     -2.613942    0.426086   -3.365251
H     -2.384331    1.899252   -1.514943
H     -3.978567   -0.077123   -1.251729
H     -2.471887   -1.917700   -0.758962
H     -3.401510   -1.599886    0.738074
H     -1.545152   -0.318029    1.711768
H     -0.077686   -0.905027   -0.944192
H      1.648290    0.714900   -1.167383
H      3.721658   -0.672307   -0.979592
H      2.231028   -1.679469   -0.961624
H      3.115905   -1.374446    0.575525
H      2.152234    2.375349    0.537090
H      3.659373    1.698626   -0.149012
H      4.841391    0.329790    2.985465
H     -0.199444   -2.022014    1.979803
H     -4.496034    0.630120    0.758565
