15

C      1.801185   -0.040084   -0.408477
C      0.850742    0.019391    0.753949
O      1.300964    0.048422    1.889646
C     -0.649133    0.038187    0.551226
C     -1.081394    1.362974   -0.017815
O     -1.052290    1.572328   -1.259873
O     -1.469586    2.386407    0.837685
N     -1.088772   -1.078499   -0.295299
H      1.547207    0.742891   -1.152155
H      2.845064    0.126379   -0.066642
H      1.743271   -1.037980   -0.890296
H     -1.138889   -0.072640    1.545911
H     -0.690394   -1.003514   -1.259563
H     -0.784948   -1.984304    0.130969
H     -2.133026   -1.079960   -0.359265
