30

C      5.027599    0.404426   -0.943928
C      3.995371    0.203536   -1.863796
C      2.697124   -0.060259   -1.415454
C      2.424850   -0.138513   -0.036557
C      3.464748    0.088729    0.878898
C      4.761590    0.351191    0.426530
N      1.095400   -0.382245    0.453596
C      0.139480   -1.233719   -0.198085
O      0.492359   -1.996467   -1.137942
C     -1.293360   -1.223649    0.242361
C     -2.020812   -0.001435   -0.334408
C     -3.514004    0.027552    0.055761
C     -3.680907    0.217214    1.541475
O     -4.235846   -0.675566    2.234709
O     -3.221386    1.375648    2.156799
N     -4.211625    1.097555   -0.666721
H      6.031278    0.610091   -1.292933
H      4.199247    0.261550   -2.925228
H      1.906725   -0.175146   -2.144878
H      3.270590    0.052351    1.943558
H      5.559793    0.515673    1.138799
H      0.831548    0.025443    1.379282
H     -1.794847   -2.155302   -0.100317
H     -1.329024   -1.204175    1.352593
H     -1.940179   -0.034693   -1.443667
H     -1.522258    0.931005    0.012876
H     -3.972157   -0.945314   -0.236919
H     -5.221080    1.112424   -0.391712
H     -3.783027    2.028167   -0.453584
H     -4.157191    0.923930   -1.696825
