39

C      3.903020    0.426920   -2.424380
C      3.602941   -0.058746   -1.029296
C      2.349754   -0.483579   -0.752771
C      1.875910   -0.963152    0.599716
C      1.004986    0.084795    1.252850
C     -0.371205    0.240040    0.933676
C     -1.123384    1.242607    1.578342
C     -0.516584    2.087286    2.515049
C      0.834379    1.940516    2.820077
C      1.590100    0.949373    2.195131
N     -2.513135    1.403745    1.265893
C     -3.173730    0.517390    0.353320
C     -4.534641    0.689535    0.074765
C     -5.180497   -0.161942   -0.818600
C     -4.480555   -1.206977   -1.421196
C     -3.118999   -1.416076   -1.140874
C     -2.447409   -0.518457   -0.267704
N     -1.026127   -0.597230   -0.040630
C     -2.458842   -2.596976   -1.741363
O     -1.585700   -3.242568   -1.103629
O     -2.850892   -3.049977   -2.995662
C      4.701284   -0.061449    0.006539
H      3.709007   -0.386867   -3.154961
H      4.960927    0.744604   -2.532241
H      3.253574    1.294685   -2.667004
H      1.606300   -0.442672   -1.544338
H      2.722693   -1.228189    1.265992
H      1.312888   -1.911136    0.475941
H     -1.092311    2.860210    3.008513
H      1.298248    2.596511    3.545446
H      2.636014    0.852792    2.455698
H     -3.058291    2.168668    1.725376
H     -5.092579    1.489313    0.545351
H     -6.231829   -0.020959   -1.034281
H     -5.014439   -1.873146   -2.088072
H     -0.448908   -1.183807   -0.676032
H      4.890910   -1.097982    0.356045
H      5.651986    0.334734   -0.406602
H      4.415138    0.578165    0.865914
