46

C      7.015289   -0.093971    0.859047
C      5.748910   -0.612885    0.184135
C      5.174091    0.428266   -0.787414
C      3.993813   -0.110508   -1.614580
C      2.759379   -0.542445   -0.798417
C      2.082703    0.613828   -0.034460
C      0.655331    0.230070    0.337650
C      0.411642   -0.678808    1.385975
C     -0.897628   -1.041470    1.709491
C     -1.988043   -0.524217    0.994621
C     -1.764770    0.369414   -0.073066
C     -0.436230    0.735821   -0.402127
O     -0.193537    1.598922   -1.468027
C     -2.933022    0.904263   -0.831161
O     -2.745877    1.708445   -1.783882
C     -4.321335    0.499378   -0.471653
C     -4.524217   -0.395762    0.602318
C     -3.366899   -0.924407    1.358191
O     -3.556788   -1.721505    2.318389
C     -5.830104   -0.784144    0.951667
C     -6.930015   -0.294944    0.248362
C     -6.736648    0.589769   -0.814350
C     -5.445325    0.990979   -1.180665
O     -5.287712    1.876002   -2.247772
O     -8.213353   -0.695276    0.614443
O      1.473920   -1.226830    2.106312
O      2.816160    0.919673    1.123745
H      6.795474    0.834014    1.428905
H      7.401943   -0.860313    1.563492
H      7.798817    0.117638    0.100546
H      5.005917   -0.848898    0.974689
H      5.991807   -1.548126   -0.365608
H      5.972408    0.729074   -1.501006
H      4.874199    1.344421   -0.237203
H      4.344916   -0.982608   -2.208439
H      3.687409    0.670405   -2.344329
H      3.023109   -1.367022   -0.103383
H      2.028917   -0.965125   -1.523867
H      2.082013    1.510525   -0.695105
H     -1.059453   -1.736610    2.524133
H     -6.001113   -1.469636    1.772634
H     -7.593033    0.967812   -1.358728
H     -6.081549    2.236259   -2.764583
H     -9.033827   -0.358525    0.124182
H      1.323523   -1.884243    2.862622
H      2.478787    1.793301    1.454221
