10

C     -1.017866   -0.562021    0.032875
C      0.160850    0.367657   -0.007686
N     -0.014547    1.642147   -0.169500
C      1.528960   -0.171820    0.065156
O      2.521089    0.603233    0.023301
O      1.739046   -1.540973    0.178148
H     -1.131028   -1.058414   -0.953408
H     -0.868016   -1.335518    0.815244
H     -1.953566   -0.012105    0.269178
H     -0.964921    2.067815   -0.253308
