50

C      6.853929   -0.915266   -1.891430
C      5.452788   -1.525832   -1.862480
C      4.774893   -1.397831   -0.489217
C      4.321286    0.041025   -0.188677
C      3.662475    0.176018    1.193282
C      2.280046   -0.489833    1.258986
C      1.592402   -0.160486    2.559641
C      0.843069    0.937672    2.771002
C      0.499712    1.958688    1.713386
C     -0.733208    1.544170    0.896939
C     -2.017470    1.552332    1.744123
C     -3.278828    1.294213    0.904996
C     -3.353505   -0.151080    0.381121
C     -4.726890   -0.492812   -0.218084
C     -4.987348    0.233234   -1.549253
C     -6.329451   -0.169101   -2.175314
C     -6.311935   -1.582231   -2.672416
O     -5.727955   -1.866933   -3.751071
O     -6.913213   -2.589816   -1.928753
H      7.335325   -1.144856   -2.865355
H      7.480991   -1.341259   -1.079562
H      6.806909    0.187767   -1.783131
H      5.541454   -2.605939   -2.110281
H      4.822897   -1.052753   -2.646970
H      5.464895   -1.754849    0.306512
H      3.888135   -2.065978   -0.492290
H      3.617520    0.390507   -0.975679
H      5.204374    0.713703   -0.204016
H      3.558970    1.260060    1.416348
H      4.326579   -0.259609    1.972040
H      2.401727   -1.592178    1.212061
H      1.656946   -0.190117    0.391404
H      1.748698   -0.839299    3.393217
H      0.431314    1.090498    3.764500
H      1.360219    2.123169    1.032128
H      0.300731    2.933388    2.208909
H     -0.570357    0.535180    0.464973
H     -0.848385    2.260642    0.054656
H     -2.124389    2.548762    2.226100
H     -1.947003    0.793491    2.553521
H     -3.308253    2.012294    0.057924
H     -4.163496    1.492842    1.548687
H     -2.567097   -0.323488   -0.384483
H     -3.164943   -0.851736    1.223837
H     -5.528907   -0.246288    0.511759
H     -4.756135   -1.590281   -0.390576
H     -4.162724    0.024354   -2.266080
H     -5.013420    1.328891   -1.370620
H     -6.544751    0.506401   -3.031345
H     -7.148623   -0.040197   -1.434965
