21

C      3.504818   -0.273200   -0.704637
C      2.116926    0.072907   -0.271171
C      1.885220    1.213781    0.504231
C      0.581361    1.517825    0.897752
O      0.376123    2.546813    1.596547
C     -0.476325    0.670936    0.507167
C     -1.825422    0.903462    0.861074
C     -2.821601    0.017586    0.435929
C     -2.495095   -1.101579   -0.339646
C     -1.164937   -1.338629   -0.693641
C     -0.155876   -0.464329   -0.277946
O      1.103531   -0.710641   -0.627306
O     -3.485944   -1.984348   -0.763579
O     -2.193484    2.002945    1.630126
H      4.149137   -0.428490    0.186170
H      3.498745   -1.205065   -1.308589
H      3.922299    0.550161   -1.321551
H      2.708555    1.855298    0.796768
H     -3.852956    0.201247    0.710314
H     -0.914791   -2.204988   -1.293629
H     -4.460286   -1.841693   -0.524383
