47

C     -4.066059   -1.841552   -0.253832
C     -4.566568   -0.424594   -0.547002
C     -5.313813    0.190442    0.675724
C     -5.201974    1.719148    0.638319
C     -3.722852    2.162449    0.601459
C     -2.817637    1.064644   -0.000143
O     -3.503052    0.386702   -1.042163
O     -1.649589    1.677681   -0.508326
C     -0.734814    0.711065   -0.995735
C      0.675931    1.091309   -0.545241
C      1.724855    0.132379   -1.125373
C      3.151321    0.463823   -0.657547
C      3.409891    0.015650    0.792609
C      4.873479    0.220656    1.218255
C      5.839981   -0.601447    0.410082
C      5.826707   -1.937912    0.441383
C      6.755743   -2.753155   -0.355974
O      7.603090   -2.211441   -1.121185
O      6.676142   -4.138765   -0.284125
O     -3.274114    2.463359    1.898706
O     -6.657213   -0.216809    0.713793
H     -3.579888   -2.262645   -1.157948
H     -3.332184   -1.839163    0.577222
H     -4.918453   -2.496915    0.026631
H     -5.295296   -0.514554   -1.380940
H     -4.833684   -0.154527    1.616856
H     -5.721428    2.158538    1.518064
H     -5.717926    2.095314   -0.274475
H     -3.650761    3.073412   -0.039898
H     -2.532600    0.356549    0.816461
H     -0.778056    0.716346   -2.105344
H     -0.946245   -0.328175   -0.653089
H      0.705536    1.067974    0.563586
H      0.898856    2.126346   -0.880578
H      1.695532    0.206778   -2.233446
H      1.476139   -0.916740   -0.856226
H      3.858084   -0.064885   -1.334175
H      3.343178    1.555671   -0.757847
H      2.771166    0.611986    1.481154
H      3.128626   -1.054007    0.917664
H      4.981581   -0.045849    2.292009
H      5.136363    1.295237    1.114930
H      6.566121   -0.080217   -0.197831
H      5.112159   -2.452255    1.072523
H      7.319225   -4.719512   -0.810428
H     -3.615570    3.368854    2.120208
H     -7.099934    0.122808   -0.107479
