37

C      4.206064    2.374227   -0.589375
C      4.194603    1.428750    0.354115
C      3.285339    0.240607    0.259334
O      1.935989    0.683796    0.277199
C      1.030025   -0.252259    0.862890
C      1.108894   -1.658131    0.156793
C     -0.281402   -2.283555   -0.019640
C     -1.200237   -1.321698   -0.815944
C     -0.820027    0.165040   -0.539841
O     -0.281002    0.298203    0.765615
C     -1.957429    1.199468   -0.755850
C     -2.969515    1.278728    0.414176
O     -3.814668    2.381707    0.230719
N     -2.595099    0.977554   -2.060011
N     -3.793912    0.721504   -2.188087
N     -4.989942    0.465097   -2.317334
O     -2.546419   -1.580844   -0.512974
O     -0.827645   -2.562060    1.245859
C      1.304992   -0.362922    2.350911
O      1.628518    0.664820    3.003725
O      1.135388   -1.564938    3.028739
H      4.877221    3.222236   -0.500411
H      3.550061    2.309467   -1.452440
H      4.866373    1.516884    1.202994
H      3.493761   -0.286240   -0.696378
H      3.536093   -0.448982    1.095820
H      1.778528   -2.358840    0.701702
H      1.539579   -1.542512   -0.861823
H     -0.162598   -3.232009   -0.596072
H     -1.036295   -1.502702   -1.905270
H     -0.042528    0.443430   -1.292852
H     -1.466954    2.197461   -0.800292
H     -2.424641    1.405508    1.375548
H     -3.580973    0.355231    0.483748
H     -4.441631    2.381800    1.000222
H     -2.786714   -2.427956   -0.971991
H     -1.451793   -3.325870    1.132984
