23

C      0.498942   -0.264057   -1.009948
C      1.896495    0.313514   -1.301778
N      2.888272   -0.087508   -0.302054
C     -0.155513    0.325732    0.258722
C     -1.687056    0.072531    0.275332
C     -2.011676   -1.400870    0.305127
O     -1.827508   -2.077720    1.351524
O     -2.491058   -2.027184   -0.838541
N     -2.326183    0.762235    1.404082
O      0.441131   -0.239430    1.400015
H     -0.140053   -0.033556   -1.890500
H      0.560012   -1.371569   -0.929982
H      2.221768   -0.054405   -2.300309
H      1.845859    1.423525   -1.358401
H      2.842737   -1.118299   -0.131225
H      2.733197    0.433342    0.590338
H      3.842628    0.151240   -0.656314
H      0.007553    1.430342    0.242083
H     -2.113885    0.496026   -0.662458
H     -3.362848    0.628787    1.356620
H     -2.127306    1.787832    1.352741
H     -1.978398    0.391289    2.318036
H      0.442888    0.458201    2.106227
