44

C     -3.196781    1.005051    2.041270
C     -2.635305    0.243712    0.839034
C     -3.691957   -0.724113    0.257821
C     -3.131428   -1.412089   -0.992063
C     -2.524205   -0.396190   -1.972303
C     -1.577870    0.582671   -1.236422
O     -2.233045    1.195357   -0.135378
O     -0.408872   -0.095910   -0.793225
C      0.658415    0.013454   -1.720419
C      1.498770   -1.265253   -1.657728
C      1.517368    1.279276   -1.455244
C      1.498372    1.824285   -0.008995
C      2.025407    0.856245    1.060692
C      3.465696    0.483176    0.846009
C      4.038030   -0.470470    1.586840
C      5.439370   -0.879004    1.403371
O      6.168429   -0.330477    0.533276
O      5.961467   -1.892315    2.200423
O     -3.530500    0.293304   -2.675148
O     -4.020357   -1.710335    1.204736
H     -4.097943    1.585108    1.748919
H     -3.462971    0.303551    2.859029
H     -2.430830    1.710087    2.427807
H     -1.759347   -0.337126    1.209759
H     -4.601834   -0.148093   -0.037338
H     -3.936355   -1.989579   -1.497423
H     -2.340141   -2.133602   -0.688238
H     -1.932680   -0.963177   -2.723570
H     -1.331768    1.411391   -1.942421
H      0.289877    0.058976   -2.773783
H      2.334425   -1.215677   -2.388324
H      0.863045   -2.138645   -1.918877
H      1.916395   -1.432637   -0.646614
H      1.125998    2.091194   -2.105330
H      2.565306    1.117602   -1.786230
H      2.107660    2.753784    0.022988
H      0.461397    2.119483    0.258507
H      1.389318   -0.052247    1.096478
H      1.937760    1.348837    2.053441
H      4.040072    0.992346    0.084070
H      3.455165   -0.977551    2.345409
H      6.921376   -2.197971    2.092242
H     -3.993074    0.897868   -2.039628
H     -4.841858   -1.404296    1.673095
