46

C     -0.935527   -0.233051    0.689548
C     -1.892193    0.739931    1.394281
C     -3.162760    0.053026    1.927222
C     -4.044905   -0.607695    0.852218
C     -4.580159    0.393087   -0.182435
C     -5.598092   -0.275045   -1.116480
C     -6.108535    0.694802   -2.187688
O     -6.800519    1.766485   -1.605102
C      0.389528    0.455322    0.340870
C      1.338488   -0.509433   -0.380116
C      2.663736    0.178620   -0.727628
C      3.615023   -0.789820   -1.445952
C      4.933181   -0.113212   -1.851374
C      5.751094    0.306341   -0.661891
C      6.343985   -0.592256    0.131817
C      7.153962   -0.203155    1.296862
O      7.318748    1.010473    1.597269
O      7.743715   -1.192804    2.076093
H     -1.403739   -0.600493   -0.248642
H     -0.734812   -1.102258    1.353874
H     -1.367148    1.193355    2.263545
H     -2.162097    1.571595    0.709524
H     -2.867662   -0.722407    2.667426
H     -3.768942    0.807549    2.474509
H     -3.486527   -1.420940    0.342070
H     -4.906320   -1.082360    1.371418
H     -3.737689    0.782225   -0.793308
H     -5.064003    1.244620    0.344136
H     -5.118675   -1.140800   -1.623665
H     -6.460410   -0.655129   -0.526043
H     -5.251592    1.093611   -2.771408
H     -6.772287    0.150688   -2.897315
H     -7.682061    1.412195   -1.316880
H      0.187126    1.331108   -0.314672
H      0.873675    0.817028    1.274849
H      1.539972   -1.385498    0.275267
H      0.855429   -0.870718   -1.314832
H      3.140951    0.542762    0.208429
H      2.462950    1.052914   -1.385340
H      3.120535   -1.165563   -2.368357
H      3.824671   -1.666891   -0.795358
H      5.529168   -0.813320   -2.476402
H      4.711621    0.779845   -2.475103
H      5.870276    1.366632   -0.473068
H      6.233028   -1.649028   -0.079805
H      8.305792   -0.952335    2.883909
