40

C     -5.932995   -1.642966    0.716119
C     -4.454864   -1.326912    0.464909
C     -4.292034    0.050920   -0.212964
C     -2.827976    0.415526   -0.514445
C     -1.998517    0.642059    0.762122
C     -0.633870    1.289387    0.475836
C      0.337921    0.328178   -0.230510
C      1.707016    0.970213   -0.507286
C      2.565787    1.106682    0.762335
C      3.962510    1.669082    0.456600
C      4.797888    0.720070   -0.356792
C      5.266196   -0.420672    0.161395
C      6.092925   -1.360935   -0.617479
O      6.388259   -1.118410   -1.818210
O      6.556785   -2.533754   -0.029205
O     -3.863626   -2.346251   -0.302151
H     -6.381503   -0.875016    1.381908
H     -6.027007   -2.633866    1.208931
H     -6.497381   -1.664896   -0.240671
H     -3.952807   -1.303836    1.455075
H     -4.854136    0.052452   -1.172788
H     -4.741014    0.838705    0.431237
H     -2.828755    1.349981   -1.117088
H     -2.368790   -0.382674   -1.134740
H     -2.560643    1.317930    1.443208
H     -1.842150   -0.320977    1.293687
H     -0.201466    1.597886    1.450419
H     -0.773388    2.207382   -0.136034
H     -0.094099    0.030409   -1.209067
H      0.469718   -0.595358    0.374815
H      1.568444    1.966718   -0.981191
H      2.241696    0.323944   -1.236826
H      2.658418    0.120684    1.267605
H      2.070996    1.803344    1.470688
H      3.859897    2.629241   -0.094147
H      4.487414    1.890312    1.411427
H      5.035073    0.995796   -1.377452
H      5.036903   -0.672253    1.189953
H      6.338627   -2.761898    0.933475
H     -4.315454   -2.356229   -1.186639
