16

C      1.242838   -1.312428    0.451950
C      1.423073   -0.277725   -0.444248
O      0.358065    0.489816   -0.472700
C     -0.520464    0.005073    0.375483
C     -0.017835   -1.131633    0.981001
C     -1.884625    0.594702    0.608827
O     -1.814664    1.992935    0.734809
O     -2.770561    0.229184   -0.419289
C      2.620595   -0.054552   -1.255809
O      2.678336    0.924205   -2.045069
H      1.941042   -2.104403    0.689198
H     -0.510288   -1.755393    1.715298
H     -2.285431    0.190890    1.562668
H     -1.519319    2.361280   -0.138633
H     -2.402690    0.579013   -1.272855
H      3.461930   -0.730962   -1.180322
