17

C      0.407349   -1.370307    0.526265
C      0.789581   -0.186148   -0.074772
O     -0.250955    0.601016   -0.225811
C     -1.307414   -0.017254    0.249416
C     -0.951308   -1.261923    0.735515
C     -2.656647    0.557030    0.250544
O     -3.625614   -0.094641    0.724387
O     -2.865461    1.827951   -0.274763
C      2.184229    0.177611   -0.491845
O      2.631374    1.264934    0.270704
O      2.188797    0.543592   -1.844658
H      1.040044   -2.209865    0.782365
H     -1.599352   -2.000859    1.188303
H     -3.790288    2.241344   -0.282786
H      2.870894   -0.690875   -0.340172
H      2.840342    0.913388    1.175910
H      2.094428   -0.294994   -2.368601
