16

C      0.400766    1.206821   -0.729781
C     -0.448115    0.230133   -0.244463
O      0.194974   -0.552024    0.592485
C      1.433239   -0.125390    0.686730
C      1.618482    0.979351   -0.124042
C      2.450087   -0.753709    1.536193
O      3.621043   -0.292500    1.578142
O      2.122084   -1.865527    2.300962
C     -1.882774    0.043628   -0.635437
O     -1.980530   -0.910723   -1.660724
O     -2.627915   -0.360756    0.482825
H      0.163752    1.986850   -1.441235
H      2.528635    1.548147   -0.262254
H     -2.280711    1.013130   -1.011649
H     -1.733438   -1.789213   -1.268123
H     -3.579578   -0.358217    0.200371
