37

C      3.515999    1.667149    0.114925
C      4.883352    1.949524    0.190727
C      5.798982    0.928481    0.465707
C      5.341381   -0.381610    0.661049
C      3.974613   -0.666778    0.585172
C      3.051109    0.358217    0.322393
C      1.583315    0.046834    0.205543
C      1.226068   -0.329848   -1.234774
N     -0.197717   -0.639219   -1.342934
C     -1.209998    0.377382   -1.348566
O     -0.891252    1.595701   -1.281122
C     -2.658544   -0.005608   -1.390447
C     -3.164250   -0.332521    0.020805
C     -4.609264   -0.879205    0.022653
C     -4.956070   -1.391306    1.395364
O     -5.049709   -0.597206    2.368874
O     -5.160380   -2.750390    1.597750
N     -5.579407    0.142092   -0.396530
O      7.158188    1.224457    0.539136
H      2.820143    2.467009   -0.107072
H      5.232133    2.961853    0.032077
H      6.043398   -1.179065    0.868449
H      3.636125   -1.685623    0.728789
H      1.319592   -0.794546    0.883528
H      0.986215    0.927281    0.528019
H      1.814470   -1.225490   -1.533175
H      1.485315    0.497451   -1.931280
H     -0.482345   -1.637923   -1.458120
H     -2.783523   -0.888709   -2.053807
H     -3.241130    0.836230   -1.821710
H     -3.102446    0.578449    0.656853
H     -2.493314   -1.102308    0.465442
H     -4.665035   -1.737790   -0.684623
H     -5.463802    1.017543    0.164847
H     -6.553457   -0.218551   -0.269356
H     -5.455414    0.361267   -1.410641
H      7.846662    0.506779    0.733153
