37

C     -2.362667    0.314008    1.593363
C     -1.885169   -0.093295    0.173344
C     -1.869609   -1.638087    0.016023
C     -0.467877   -2.264611    0.285578
C      0.444080   -1.435609    1.239638
C      0.577580    0.082892    0.826930
C     -0.503064    0.451622   -0.214939
C     -0.722451    1.920755   -0.580682
C     -2.090327    1.917013   -1.280924
C     -2.736973    0.654325   -0.801796
O     -3.862210    0.309549   -1.129135
C      2.002187    0.513047    0.380663
C      2.473515   -0.093143   -0.952928
C      3.934503    0.170625   -1.157301
O      4.781081   -0.708867   -0.848664
O      4.369930    1.398707   -1.646483
O      1.704655   -2.050957    1.336661
H     -1.808262   -0.206725    2.394814
H     -2.260621    1.407097    1.759697
H     -3.435230    0.051433    1.721277
H     -2.616491   -2.100895    0.698018
H     -2.175607   -1.915763   -1.016801
H      0.060995   -2.386746   -0.685003
H     -0.605545   -3.285735    0.702840
H     -0.022364   -1.471871    2.249594
H      0.371730    0.683895    1.740884
H     -0.216616   -0.039910   -1.174834
H      0.074195    2.294581   -1.259859
H     -0.752952    2.552335    0.333471
H     -1.965384    1.877397   -2.384426
H     -2.690880    2.805273   -0.990483
H      2.030314    1.621470    0.292627
H      2.721338    0.249183    1.187550
H      2.292344   -1.187610   -0.978901
H      1.918475    0.364925   -1.798034
H      3.711251    2.131091   -1.883233
H      1.582124   -2.891400    1.851455
