36

C     -2.250714   -0.644759   -1.239048
C     -1.882030    0.069945    0.089601
C     -1.995627    1.609464   -0.061609
C     -0.634106    2.287403   -0.385673
C      0.392808    1.366898   -1.118691
C      0.624867   -0.038729   -0.423665
C     -0.483835   -0.277580    0.630683
C     -0.630855   -1.662755    1.272525
C     -2.033070   -1.630581    1.898717
C     -2.733762   -0.538147    1.156358
O     -3.896662   -0.225478    1.361917
C      2.029893   -0.211593    0.216731
C      3.111933   -0.552743   -0.819961
C      4.450109   -0.665010   -0.160700
O      5.179806    0.352990   -0.031593
O      4.870690   -1.883670    0.356616
O      1.591913    2.064740   -1.354052
H     -2.066355   -1.738036   -1.178710
H     -1.688621   -0.252373   -2.105367
H     -3.329712   -0.496576   -1.461761
H     -2.384981    2.055447    0.880314
H     -2.731657    1.865219   -0.855380
H     -0.181913    2.635054    0.569349
H     -0.817970    3.194659   -1.001260
H     -0.032283    1.173255   -2.124230
H      0.517566   -0.829780   -1.199306
H     -0.260030    0.407694    1.485757
H     -0.564638   -2.461074    0.501917
H      0.138581   -1.841432    2.053917
H     -2.554985   -2.601576    1.761386
H     -1.975196   -1.370928    2.977721
H      2.307469    0.695258    0.795348
H      2.010819   -1.051292    0.942961
H      2.868490   -1.522868   -1.304865
H      3.165572    0.215392   -1.617534
H      1.868486    2.503559   -0.508415
