27

C      2.482704    0.877580   -0.202874
C      2.037592    2.304036   -0.479976
S      2.376410    2.639038   -2.220465
S      1.288773    0.888714   -2.724833
C      2.012383   -0.060746   -1.335950
C      1.036884   -1.152292   -0.847957
C     -0.310444   -0.605225   -0.340595
C     -1.197845   -1.740942    0.189743
C     -2.583219   -1.243162    0.623348
C     -2.506326   -0.373672    1.844607
O     -2.420222   -0.903084    2.984642
N     -2.494251    1.048752    1.722483
H      3.594328    0.860792   -0.157824
H      2.120041    0.556752    0.797047
H      0.950658    2.419309   -0.277583
H      2.602289    3.015804    0.158284
H      2.907927   -0.581196   -1.741579
H      1.528924   -1.732737   -0.036519
H      0.846689   -1.856179   -1.687805
H     -0.136747    0.129205    0.472466
H     -0.842242   -0.090423   -1.169008
H     -0.697020   -2.244629    1.045991
H     -1.337348   -2.496637   -0.614092
H     -3.224138   -2.122208    0.851419
H     -3.068327   -0.690917   -0.210535
H     -2.539810    1.504215    0.784002
H     -2.427661    1.649851    2.573564
