13

C      0.634149    0.968583   -0.311306
C      1.059079   -0.313854    0.058676
N      0.136492   -1.262620    0.373670
C     -1.195849   -0.985695    0.335176
O     -2.033039   -1.880174    0.631060
N     -1.625453    0.255504   -0.022298
C     -0.737093    1.234149   -0.345103
O     -1.152363    2.377863   -0.673853
O      2.415547   -0.634660    0.109513
O      1.554069    1.959643   -0.638879
H      0.458868   -2.218098    0.649134
H     -2.650891    0.459315   -0.049134
H      3.136483    0.040045   -0.116656
