26

C      2.205260   -0.822703   -0.823510
C      3.673182   -0.898282   -1.192276
S      4.590618   -0.234905    0.210546
S      3.361039    1.500345    0.182976
C      1.858963    0.604826   -0.363768
C      0.805840    0.628180    0.758154
C     -0.556693    0.098190    0.286763
C     -1.601690    0.195442    1.408148
C     -2.957335   -0.390231    0.991708
C     -3.620342    0.439703   -0.064316
O     -4.217640    1.503471    0.251217
O     -3.548290    0.051799   -1.398553
H      1.581395   -1.107442   -1.698396
H      2.012275   -1.558297   -0.010988
H      3.880938   -0.296471   -2.103532
H      3.972134   -1.952237   -1.373079
H      1.462987    1.169510   -1.236380
H      1.166677    0.028865    1.623085
H      0.677076    1.678092    1.102506
H     -0.894963    0.693829   -0.588758
H     -0.457433   -0.963767   -0.025810
H     -1.731574    1.256884    1.715099
H     -1.236222   -0.371029    2.292596
H     -2.826047   -1.431169    0.624492
H     -3.620712   -0.432494    1.882519
H     -3.979444    0.609891   -2.125692
