24

C     -0.944450    1.298370    0.569360
C     -0.210362    0.578360   -0.560068
C      0.092006   -0.841858   -0.143533
C      1.250654   -1.465189   -0.426782
C      2.412713   -0.822949   -1.064935
O      2.825238   -1.269744   -2.167530
C      3.152428    0.264800   -0.404314
O      2.842456    0.632193    0.761105
O      4.209703    0.882985   -1.064859
C     -0.995526   -1.635685    0.530768
C     -2.177688   -0.912363    1.072584
C     -2.286786    0.613800    0.891703
O     -3.212015    0.869919   -0.132276
O     -1.094684   -1.284889    1.894577
H     -1.124347    2.355875    0.277419
H     -0.303100    1.310933    1.478528
H      0.699619    1.157887   -0.808612
H     -0.846265    0.558730   -1.471213
H      1.346368   -2.522066   -0.206195
H      4.732029    1.630592   -0.623805
H     -1.090491   -2.731061    0.372166
H     -3.085643   -1.507830    1.304112
H     -2.672101    1.032307    1.850199
H     -3.519756    1.806882   -0.015948
