22

C      1.598378   -1.121716   -0.535736
C      0.221859   -1.018964    0.135489
C     -0.361622    0.379181    0.025564
C     -1.673704    0.636604    0.207450
C     -2.705327   -0.355470    0.600562
O     -2.383523   -1.437073    1.161245
C     -4.133543   -0.068521    0.391167
O     -4.500709    0.997510   -0.170264
O     -5.092453   -0.982929    0.809584
C      0.548862    1.520378   -0.249124
C      1.872841    1.357690   -0.327155
C      2.516375    0.019258   -0.070522
O      3.769191   -0.059573   -0.701486
H      1.470493   -1.076505   -1.640366
H      2.060399   -2.100373   -0.282033
H      0.317368   -1.287707    1.209884
H     -0.444450   -1.755373   -0.362871
H     -2.018257    1.654890    0.065790
H      0.140817    2.512585   -0.403864
H      2.499605    2.214853   -0.541497
H      2.675985   -0.080035    1.025094
H      3.621415    0.051290   -1.677749
