25

C     -1.480817    0.627953   -0.941337
C     -2.701996    0.057903   -0.191852
C     -2.601900    0.334030    1.286112
O     -2.614214    1.517437    1.717934
O     -2.487942   -0.720935    2.182752
N     -3.946211    0.619426   -0.730842
N     -0.237345   -0.016754   -0.513567
C      1.030974    0.385363   -1.055801
O      1.066514    1.163513   -2.047000
C      2.310197   -0.109567   -0.507538
C      2.429823   -0.628228    0.722266
C      3.706164   -1.123260    1.278622
O      3.673473   -1.836932    2.315929
N      4.974236   -0.803122    0.697672
H     -1.408308    1.723689   -0.764155
H     -1.612212    0.462558   -2.032842
H     -2.720569   -1.045128   -0.345202
H     -4.043735    0.360137   -1.739534
H     -4.766262    0.227873   -0.212205
H     -3.949834    1.662307   -0.644194
H     -0.281961   -0.818303    0.154069
H      3.177215   -0.014375   -1.145570
H      1.561535   -0.711057    1.361614
H      5.078834   -0.088801   -0.054401
H      5.844341   -1.225727    1.091005
