37

C     -4.091304   -0.019885    1.580103
C     -3.892740    0.307309    0.098889
C     -2.788743   -0.549020   -0.463047
O     -3.044545   -1.719937   -0.858007
N     -1.440263   -0.056718   -0.489480
C     -0.320222   -0.872439   -0.975891
C      0.959222   -0.022740   -1.164061
C      1.600809    0.515020    0.149703
C      2.423156    1.795234   -0.098321
C      3.674955    1.528929   -0.941205
C      4.456758    0.346721   -0.435003
O      5.543461    0.094875   -0.930750
C      3.920357   -0.555745    0.640767
C      2.456639   -0.526535    0.915482
O      3.045479   -1.510980    0.091611
C     -0.087772   -2.066402   -0.083738
O      0.369565   -3.129914   -0.579060
O     -0.338325   -2.010291    1.286197
N     -5.136779    0.081139   -0.638503
H     -4.875218    0.636900    2.013472
H     -4.401577   -1.079548    1.707101
H     -3.146575    0.150170    2.140211
H     -3.608085    1.380144    0.008635
H     -1.274398    0.934212   -0.202168
H     -0.596562   -1.252785   -1.984973
H      0.680600    0.837700   -1.811822
H      1.702207   -0.603843   -1.751138
H      0.782479    0.812971    0.838466
H      1.795892    2.564073   -0.599900
H      2.734347    2.220116    0.882140
H      3.384387    1.344073   -1.997588
H      4.321389    2.432562   -0.916714
H      4.593070   -0.996781    1.405710
H      2.117715   -0.938347    1.888885
H     -0.673923   -1.165975    1.733210
H     -4.981757    0.360181   -1.635091
H     -5.863703    0.735557   -0.267063
