39

C     -4.355062    0.430300    1.449129
C     -3.231417   -0.142771    0.639514
C     -3.460228   -0.776293   -0.547710
C     -2.255589   -1.317353   -1.342544
C     -0.927192   -1.058899   -0.549803
C     -1.214910   -1.485053    0.902459
C     -1.771280   -0.062982    1.108586
C     -0.868300    0.419666   -0.063435
C     -1.432205    1.529440   -1.002647
C      0.549926    0.837444    0.445607
C      1.567094    1.046921   -0.690854
C      2.970711    1.145438   -0.147373
C      3.764963    0.081084    0.103899
C      3.323480   -1.334163   -0.190667
C      5.136508    0.327387    0.677270
H     -3.968997    0.897972    2.378769
H     -5.067750   -0.375287    1.724256
H     -4.886461    1.203765    0.855838
H     -4.465880   -0.879087   -0.943644
H     -2.207864   -0.825445   -2.336635
H     -2.385551   -2.408651   -1.502794
H     -0.006801   -1.490916   -0.995917
H     -1.941420   -2.321322    1.031260
H     -0.290874   -1.681627    1.487457
H     -1.587737    0.388588    2.107589
H     -1.288522    2.526484   -0.535108
H     -2.507872    1.452671   -1.240800
H     -0.888095    1.512615   -1.969702
H      0.955110    0.096660    1.163513
H      0.459564    1.786999    1.017848
H      1.336656    2.002297   -1.208611
H      1.499332    0.244046   -1.452719
H      3.346821    2.143940    0.062443
H      4.099401   -2.071071    0.103088
H      2.398755   -1.577271    0.371002
H      3.137657   -1.454577   -1.278326
H      5.694765   -0.619458    0.830767
H      5.045920    0.840397    1.658172
H      5.723341    0.968109   -0.014627
