19

C     -2.567251    0.905526   -0.583408
C     -2.494307   -0.389917   -1.102683
C     -1.318120   -1.134479   -0.974538
C     -0.203405   -0.583943   -0.322945
C      0.983343   -1.320823   -0.187585
C      2.089103   -0.763344    0.463576
C      2.012968    0.536097    0.983346
C      0.836509    1.279757    0.854713
C     -0.277493    0.729337    0.203432
C     -1.464544    1.465947    0.067841
O      3.259143   -1.508999    0.588947
H     -3.480858    1.476787   -0.685935
H     -3.351644   -0.818098   -1.605834
H     -1.279778   -2.137207   -1.383294
H      1.053576   -2.326452   -0.585577
H      2.866361    0.971034    1.487876
H      0.797557    2.282564    1.263280
H     -1.539144    2.471610    0.464199
H      4.077982   -1.135398    1.054590
