17

C     -2.672551   -0.312036    0.412660
C     -1.227896   -0.030533    0.127486
C     -0.263021   -1.052332    0.287238
C      1.066729   -0.723575    0.045486
N      2.155499   -1.502865    0.122419
N      3.169672   -0.702885   -0.199603
N      2.782949    0.540885   -0.474685
C      1.450896    0.527315   -0.319829
C      0.541841    1.567668   -0.474406
C     -0.817255    1.279906   -0.239859
H     -2.915031   -1.374337    0.196470
H     -2.885249   -0.102145    1.481613
H     -3.326605    0.325512   -0.219473
H     -0.540665   -2.055230    0.586910
H      4.164260   -1.017617   -0.231725
H      0.865322    2.560652   -0.758304
H     -1.548895    2.071619   -0.342397
