18

C      1.823258   -0.745247    0.311682
C      0.966807   -0.343159   -0.892463
C     -0.386543    0.313301   -0.529705
C     -0.202162    1.647061    0.210592
C     -1.305146   -0.639582    0.255869
O     -2.603038   -0.113913    0.310647
H      2.086069    0.140231    0.925915
H      2.767969   -1.203154   -0.049928
H      1.298925   -1.494618    0.939462
H      1.553204    0.359004   -1.524526
H      0.777069   -1.248875   -1.508926
H     -0.892662    0.542049   -1.494476
H      0.185464    1.484960    1.238238
H      0.503213    2.301980   -0.343846
H     -1.174998    2.177809    0.285631
H     -1.334720   -1.629785   -0.252124
H     -0.919308   -0.781924    1.289961
H     -3.143402   -0.766137    0.827996
