29

C      3.041340   -0.881672   -0.641787
C      2.399785    0.286822    0.064949
C      3.192866    1.237617    0.584181
C      0.885742    0.400783    0.185081
C      0.293309   -0.797036    0.947878
C     -1.219047   -0.621658    1.202114
C     -1.960182    0.198107    0.097402
C     -1.230719    0.050647   -1.256009
C      0.219462    0.576675   -1.203244
C     -3.410384   -0.304213   -0.053903
O     -1.978837    1.566552    0.437204
H      2.283732   -1.577890   -1.055145
H      3.682060   -1.444145    0.069758
H      3.666812   -0.514598   -1.482952
H      2.779059    2.099809    1.097962
H      4.273475    1.165735    0.500998
H      0.639666    1.306594    0.785730
H      0.450092   -1.729828    0.363977
H      0.814485   -0.920991    1.922633
H     -1.363814   -0.133658    2.190763
H     -1.660648   -1.638990    1.292407
H     -1.782961    0.598358   -2.051400
H     -1.212241   -1.023769   -1.546895
H      0.799054    0.058947   -1.997564
H      0.223650    1.658672   -1.460958
H     -3.944706   -0.244854    0.918593
H     -3.959304    0.318950   -0.792219
H     -3.427948   -1.360340   -0.399833
H     -2.493798    1.669374    1.280280
