20

C      3.817531   -0.002832    0.140211
S      2.424564   -0.555425    1.174052
C      1.139942    0.038264    0.022232
C     -0.247602   -0.267876    0.590891
C     -1.370638    0.247135   -0.327848
C     -2.712714    0.077618    0.334366
O     -3.135630   -1.071690    0.634437
O     -3.489455    1.196650    0.618112
N     -1.339809   -0.442988   -1.620256
H      3.786865   -0.511704   -0.845703
H      3.774049    1.096928   -0.003142
H      4.769505   -0.261030    0.647632
H      1.252926    1.134976   -0.118076
H      1.267250   -0.470540   -0.957246
H     -0.338794    0.221563    1.586074
H     -0.351608   -1.366132    0.735316
H     -1.206827    1.333735   -0.504852
H     -4.394154    1.101627    1.063848
H     -2.086904   -0.041234   -2.232811
H     -1.558495   -1.457047   -1.482168
