32

C     -2.361616    0.594353    0.108560
C     -3.724751    0.012730    0.518241
C     -3.607114   -0.909161    1.696349
O     -3.654770   -2.155995    1.526432
O     -3.417944   -0.399503    2.977209
C     -1.378601   -0.461531   -0.442936
C     -1.891867   -1.057258   -1.724359
O     -1.922644   -0.367338   -2.779268
O     -2.352375   -2.369976   -1.740582
N     -0.062734    0.143142   -0.673336
C      1.113283   -0.649236   -0.894369
O      1.043457   -1.908324   -0.888111
C      2.445878    0.014102   -1.085881
C      3.185585    0.170222    0.252768
C      4.567115    0.723786    0.023713
O      5.579365    0.048427    0.351222
O      4.730467    1.980505   -0.552415
N      2.428746    1.034109    1.162754
H     -1.903795    1.094256    0.990810
H     -2.527904    1.380562   -0.660750
H     -4.401493    0.849839    0.793334
H     -4.193784   -0.517937   -0.338441
H     -3.368499    0.599172    3.140916
H     -1.264649   -1.266519    0.315698
H     -2.710662   -2.783855   -2.592732
H      0.034783    1.184276   -0.664974
H      2.302600    1.007420   -1.565080
H      3.057630   -0.605106   -1.778728
H      3.278358   -0.836927    0.719391
H      5.654720    2.362874   -0.712084
H      2.387154    2.004170    0.772560
H      2.936061    1.084724    2.076339
