48

C     -0.971066   -2.712451    2.153904
C     -0.338228   -1.386344    1.733611
C      0.041461   -1.393140    0.262167
C     -0.644216   -0.706019   -0.684975
C     -1.809315    0.219609   -0.431748
C     -3.111719   -0.551123   -0.183707
C     -4.281466    0.399282   -0.062095
C     -4.432885    1.096014    1.085404
C     -5.511110    2.067442    1.388388
O     -6.421646    2.327538    0.559172
O     -5.527464    2.712933    2.621658
C     -5.232562    0.527572   -1.224753
C      1.262705   -2.191740   -0.156999
C      2.548523   -1.358974   -0.061137
C      2.617737   -0.285254   -1.158916
C      3.763966    0.672729   -1.185443
O      2.517046    1.020333   -0.624723
C      4.023202    1.397798   -2.510826
C      4.891291    0.599342   -0.132959
C      5.503827    1.969535    0.148779
H     -1.372341   -2.621283    3.185218
H     -0.216780   -3.526224    2.148012
H     -1.801578   -2.989813    1.472153
H      0.574169   -1.218148    2.344423
H     -1.033958   -0.562836    1.987219
H     -0.307836   -0.766261   -1.716269
H     -1.945979    0.848177   -1.339120
H     -1.581822    0.915429    0.403186
H     -3.039879   -1.155243    0.742919
H     -3.274824   -1.265364   -1.019975
H     -3.704653    0.940974    1.873252
H     -4.816312    2.534901    3.320864
H     -6.252881    0.215870   -0.917836
H     -4.924376   -0.115187   -2.075859
H     -5.246452    1.575785   -1.590491
H      1.376115   -3.072778    0.508293
H      1.140922   -2.597020   -1.186061
H      2.606030   -0.912023    0.954935
H      3.417835   -2.039479   -0.187631
H      2.031246   -0.406022   -2.094187
H      4.161244    2.483604   -2.327603
H      3.179845    1.277091   -3.223742
H      4.942081    0.990345   -2.981274
H      4.529596    0.195448    0.833303
H      5.684345   -0.082081   -0.507794
H      4.714464    2.689135    0.454026
H      6.030231    2.354588   -0.749672
H      6.243463    1.883331    0.972600
