21

C     -2.202131    1.227179    0.149587
C     -2.106725   -0.169220   -0.464575
C     -1.424243   -1.174002    0.472629
C      0.025642   -0.845353    0.676120
O      0.395889   -0.310010    1.756175
N      0.976128   -1.108965   -0.365364
C      2.376920   -0.708943   -0.266329
C      2.500104    0.773883   -0.411620
O      2.378263    1.307880   -1.546341
O      2.714237    1.566704    0.711337
H     -2.757406    1.897532   -0.539708
H     -2.743705    1.187381    1.118564
H     -1.189021    1.652402    0.311079
H     -1.556678   -0.112950   -1.429282
H     -3.135158   -0.529850   -0.682722
H     -1.500545   -2.189871    0.029047
H     -1.952625   -1.198872    1.450957
H      0.657116   -1.598404   -1.231913
H      2.799105   -1.039993    0.706845
H      2.960161   -1.200494   -1.074666
H      2.784671    2.573967    0.630179
