29

C      3.476190    1.227829   -1.767799
C      2.572996    0.897492   -0.582978
C      2.588565   -0.607448   -0.278181
C      1.840739   -0.964655    1.019193
C      0.342258   -0.613559    1.019706
C     -0.449099   -1.360973   -0.060813
O     -1.849054   -1.160259    0.122015
C     -2.504194    0.031836   -0.206955
O     -1.877220    0.988302   -0.739261
C     -3.955687    0.184833    0.116662
C     -4.133938    0.686292    1.544665
H      4.527755    0.950215   -1.541604
H      3.138656    0.680855   -2.673936
H      3.434338    2.318012   -1.974636
H      1.540843    1.223764   -0.831394
H      2.922808    1.466762    0.305550
H      2.165580   -1.173384   -1.135048
H      3.643537   -0.938846   -0.159058
H      1.954586   -2.055032    1.204617
H      2.327050   -0.439778    1.870226
H      0.203872    0.481767    0.908676
H     -0.073727   -0.891732    2.012507
H     -0.153109   -1.023160   -1.076995
H     -0.240953   -2.449104    0.018261
H     -4.463470   -0.796961    0.004218
H     -4.426889    0.902163   -0.589773
H     -3.648285    1.677995    1.668535
H     -3.687854   -0.033004    2.264722
H     -5.216292    0.789778    1.769828
