54

C     -0.289720   -1.463399    0.509660
C     -1.330417   -0.325115    0.411132
C     -0.695725    1.022760    0.816695
C      0.550043    1.333101   -0.039483
C      1.584428    0.193243    0.069411
C      0.968037   -1.163918   -0.335575
O      0.629109   -1.136283   -1.713643
P      1.448816   -2.368962   -2.566762
O      2.945033   -2.192141   -2.428290
O      0.989608   -3.892420   -1.984655
O      1.036002   -2.262788   -4.203069
O      2.665215    0.487406   -0.798436
P      4.154380    0.262760    0.006184
O      4.269668   -1.161850    0.501118
O      4.265245    1.328539    1.316530
O      5.414908    0.578959   -1.076863
O      1.145703    2.520064    0.455838
P      1.180936    3.726393   -0.751897
O      1.954182    4.915245   -0.229891
O     -0.396190    4.217549   -1.124777
O      1.946586    3.136558   -2.142707
O     -1.644523    2.055849    0.618978
P     -2.220577    2.626050    2.120941
O     -3.329895    3.623270    1.877012
O     -0.962672    3.384299    2.962494
O     -2.821518    1.338182    3.040626
O     -1.821981   -0.236085   -0.917704
P     -3.502902   -0.535958   -0.967827
O     -3.802337   -1.918754   -0.431379
O     -4.018141   -0.446765   -2.576544
O     -4.333042    0.631196   -0.062419
O     -0.872957   -2.669223    0.048145
P     -1.111370   -3.748943    1.348802
O     -1.793997   -4.997081    0.837604
O      0.382310   -4.168737    2.025147
O     -2.079981   -3.027973    2.535487
H      0.052493   -1.508763    1.573426
H     -2.115724   -0.547436    1.170495
H     -0.343212    0.931505    1.874304
H      0.224718    1.395801   -1.106004
H      1.878767    0.129575    1.146299
H      1.719311   -1.944406   -0.069240
H      1.598069   -4.076705   -1.225517
H      0.048187   -2.331879   -4.217444
H      4.107159    2.224273    0.924876
H      6.239266    0.509593   -0.532080
H     -0.729265    3.545560   -1.771158
H      1.844936    3.858583   -2.812846
H     -0.588213    4.039118    2.320435
H     -3.050146    1.738634    3.917134
H     -4.997236   -0.590611   -2.536431
H     -4.385930    0.262347    0.855147
H      0.934973   -4.458779    1.256351
H     -2.940419   -2.841437    2.082370
