36

C      0.625085    1.250975    0.478305
C      1.353955    0.130216   -0.274896
N      0.763016   -1.170464    0.058671
C     -0.662671   -1.185010   -0.286944
C     -1.400773   -0.070271    0.466202
N     -0.812200    1.243749    0.173681
C     -0.676505   -0.280729   -0.661763
C      0.525743   -1.235587   -0.546124
C      1.602705   -0.777028    0.449901
C      2.215273    0.529777    0.049878
O      1.888262    1.590317    0.646790
O      3.124545    0.575482   -1.002130
C     -1.513013   -0.220837    0.622565
C     -2.742573    0.608276    0.406062
O     -3.834869    0.050611    0.120810
O     -2.680347    1.996910    0.476354
H      0.776860    1.129330    1.573511
H      1.057617    2.231815    0.185025
H      1.302359    0.312619   -1.372418
H      2.424362    0.131731    0.023522
H      1.241354   -1.898579   -0.521696
H     -0.799590   -1.058252   -1.384975
H     -1.098068   -2.165566    0.002480
H     -2.470253   -0.069029    0.163950
H     -1.359820   -0.264195    1.560746
H     -0.941233    1.450928   -0.845162
H     -1.321115   -0.646278   -1.491514
H     -0.330694    0.739145   -0.937119
H      0.164759   -2.243375   -0.245844
H      0.989956   -1.344125   -1.550945
H      2.405988   -1.543956    0.479799
H      1.184397   -0.709689    1.476194
H      3.538593    1.453071   -1.292863
H     -0.923021    0.233643    1.445496
H     -1.808045   -1.247513    0.931543
H     -1.810038    2.471886    0.684410
