30

C      4.634072    0.423351    0.355370
C      3.800747   -0.732424   -0.198238
C      2.392615   -0.297596   -0.634013
C      1.477606    0.018980    0.561928
C      0.062116    0.435619    0.128544
C     -0.799700   -0.763249   -0.305157
C     -2.205025   -0.343737   -0.766103
C     -3.108653    0.085838    0.399501
C     -4.534736    0.363239   -0.083866
O     -5.348597    0.734699    0.995152
H      4.663800    1.264287   -0.369665
H      5.673311    0.075359    0.533880
H      4.221002    0.780820    1.320929
H      4.329431   -1.146671   -1.084124
H      3.734280   -1.541845    0.560948
H      2.463287    0.587455   -1.303695
H      1.954641   -1.129997   -1.222924
H      1.913723    0.863678    1.135864
H      1.421518   -0.857838    1.243743
H     -0.419949    0.931949    0.996827
H      0.122969    1.181291   -0.694292
H     -0.310126   -1.278433   -1.157517
H     -0.880027   -1.495274    0.528140
H     -2.671317   -1.214983   -1.276744
H     -2.128177    0.479605   -1.509920
H     -3.137872   -0.718142    1.167179
H     -2.708371    1.009209    0.868532
H     -4.532072    1.163905   -0.858786
H     -4.957515   -0.556548   -0.541541
H     -5.122982    1.677454    1.210050
