14

C     -0.365411   -0.590087   -0.454312
C      0.703125    0.189756    0.328793
C      2.073884   -0.163714   -0.173021
O      2.413483    0.136560   -1.306763
O      0.626881   -0.126249    1.695473
C     -1.748105   -0.172510   -0.049276
O     -2.402939   -0.872839    0.766971
O     -2.303866    1.004814   -0.541179
H     -0.237844   -1.681853   -0.281948
H     -0.248481   -0.402977   -1.544009
H      0.558240    1.285856    0.176687
H      2.779143   -0.675749    0.474420
H     -0.055162    0.474352    2.095314
H     -1.792948    1.594638   -1.187151
