26

C     -1.078445    1.049175    1.431041
N     -1.364697   -0.187037    0.676033
C     -2.652590   -0.060004   -0.026588
C     -2.374460    0.418050   -1.452699
C     -0.870957    0.302714   -1.643673
C     -0.396577   -0.456359   -0.405269
C      1.069228   -0.267602   -0.017248
C      1.723750    0.980671   -0.073412
N      3.023350    1.093713    0.310594
C      3.732994    0.028209    0.763647
C      3.126941   -1.223242    0.858032
C      1.793376   -1.367840    0.474112
H     -0.143532    0.934188    2.017974
H     -0.996813    1.930842    0.757983
H     -1.884562    1.238753    2.172173
H     -3.366201    0.621956    0.489689
H     -3.132178   -1.062731   -0.063523
H     -2.914811   -0.217939   -2.187788
H     -2.701287    1.473817   -1.577821
H     -0.623134   -0.254082   -2.574062
H     -0.440677    1.320914   -1.713638
H     -0.513648   -1.534646   -0.667076
H      1.208744    1.872191   -0.396433
H      4.765797    0.155474    1.059255
H      3.684451   -2.073601    1.228915
H      1.325937   -2.341022    0.559780
