27

C     -1.357927   -2.052353   -1.421574
O     -0.887408   -0.728126   -1.298310
C     -0.963786   -0.282967    0.049504
C     -2.234937    0.592120    0.240730
C     -2.310656    1.769868   -0.703765
O     -2.407321    1.592699   -1.907791
O     -2.371885    1.002440    1.579867
C      0.360980    0.443457    0.425708
C      1.592901   -0.492389    0.290250
C      2.891366    0.204604    0.731791
O      3.248718    1.201207   -0.185763
O      1.397452   -1.632941    1.087818
O      0.532916    1.612182   -0.338497
H     -1.352671   -2.331719   -2.494933
H     -2.402495   -2.147824   -1.051383
H     -0.688043   -2.759099   -0.884023
H     -1.065825   -1.128408    0.774668
H     -3.114112   -0.049096    0.015504
H     -2.300809    2.784591   -0.318596
H     -1.735040    1.745430    1.745174
H      0.299614    0.744119    1.493682
H      1.699021   -0.797135   -0.778095
H      2.760047    0.646603    1.745279
H      3.709449   -0.548580    0.783140
H      4.076683    1.618116    0.168579
H      1.984868   -2.345928    0.723497
H      0.638900    1.339129   -1.287082
