17

C     -1.610583   -0.318850   -0.452445
C     -0.206921   -0.792589   -0.730220
C      0.664932    0.286825   -0.106442
N     -0.091886    0.882390    0.999556
C     -1.490033    0.472923    0.838982
C      1.968001   -0.277496    0.387664
O      2.035268   -0.816504    1.524460
O      3.097691   -0.260085   -0.425299
H     -1.950252    0.350312   -1.273902
H     -2.317816   -1.170405   -0.349164
H     -0.018350   -0.893882   -1.821334
H     -0.048756   -1.776113   -0.232094
H      0.873212    1.065243   -0.877562
H     -0.032356    1.925882    0.927124
H     -1.771568   -0.171858    1.699186
H     -2.170192    1.354203    0.822209
H      3.069609    0.140003   -1.355475
