25

C     -2.352100    1.180681    0.876209
C     -1.789997   -0.002121    0.140869
C     -0.410192   -0.169021   -0.112748
C      0.715305    0.603978    0.182464
C      1.813806   -0.143167   -0.268143
N      1.395197   -1.285976   -0.855502
C      0.057335   -1.294628   -0.756091
C     -0.794308   -2.298027   -1.211205
C     -2.170579   -2.142078   -1.000419
C     -2.665418   -1.006090   -0.331828
C      3.245258    0.184708   -0.114633
O      4.105582   -0.463182   -0.768772
O      3.664139    1.171725    0.771355
C      0.755342    1.949740    0.848795
H     -2.328560    2.075472    0.220745
H     -3.407333    1.003076    1.174305
H     -1.776892    1.365101    1.806525
H      1.992371   -2.033149   -1.276117
H     -0.406332   -3.174314   -1.714479
H     -2.856820   -2.903460   -1.347867
H     -3.733590   -0.917850   -0.176577
H      4.647661    1.386296    0.884585
H      0.730378    1.824980    1.951037
H     -0.094272    2.575809    0.518215
H      1.664018    2.511499    0.559278
