36

C     -0.244094    2.249584   -0.679347
C      0.432123    0.885026   -0.892843
C     -0.546367   -0.281383   -0.596236
C     -1.783547   -0.311563   -1.518977
C     -2.969825    0.400463   -0.911598
C     -3.787503   -0.137772    0.020549
C     -4.924742    0.699272    0.546937
C     -3.611153   -1.552915    0.521096
C      1.697943    0.797736   -0.004797
C      2.611862   -0.377091   -0.366993
O      3.840834   -0.254283    0.342164
C      4.882114   -1.177348    0.211280
O      4.759625   -2.185504   -0.536443
C      6.131911   -0.992637    1.002795
H      0.490356    3.073674   -0.803773
H     -1.038133    2.413723   -1.435297
H     -0.685009    2.314594    0.338595
H      0.748008    0.828770   -1.958573
H     -0.847181   -0.250848    0.473336
H     -0.013399   -1.241849   -0.751250
H     -1.541008    0.158291   -2.496452
H     -2.058748   -1.362863   -1.749303
H     -3.183212    1.402298   -1.274787
H     -5.594257    0.992259   -0.289448
H     -4.523013    1.616016    1.028422
H     -5.528340    0.148792    1.298165
H     -2.613830   -1.680036    0.987773
H     -3.720099   -2.268921   -0.319955
H     -4.374245   -1.811385    1.284206
H      2.293445    1.729690   -0.126257
H      1.408675    0.723973    1.066711
H      2.131907   -1.338220   -0.087247
H      2.817320   -0.372671   -1.459840
H      7.012182   -1.310413    0.405086
H      6.077039   -1.602690    1.928194
H      6.252362    0.076229    1.277561
