37

C      4.232752   -0.032453    1.331482
C      4.171495   -0.522385   -0.109752
C      2.779086   -0.613475   -0.557980
C      1.630096   -0.684218   -0.915469
C      0.219049   -0.770303   -1.338790
C      0.057514   -0.065234   -2.696415
C     -0.783090   -0.232111   -0.242855
C     -2.212448   -0.575144   -0.657156
O     -2.461418   -1.681468   -1.210292
N     -3.302969    0.289760   -0.344687
C     -3.080679    1.631159    0.072464
O     -4.064859    2.347906    0.400722
N     -1.749102    2.163567    0.094356
C     -0.618513    1.281143   -0.059839
O      0.545967    1.757993    0.045316
C     -1.533951    3.581341    0.406779
C     -0.521191   -0.882060    1.150005
C     -0.550681   -2.391289    1.134296
C     -1.631820   -3.080631    1.509956
H      5.292387    0.031160    1.657024
H      3.696292   -0.737486    2.002658
H      3.773432    0.976037    1.416857
H      4.643679   -1.524607   -0.183968
H      4.719876    0.183938   -0.768013
H      0.022011   -1.850377   -1.512561
H      0.321112    1.011365   -2.624478
H      0.721542   -0.537814   -3.452172
H     -0.986397   -0.152830   -3.062912
H     -4.282401   -0.052672   -0.469661
H     -0.635034    3.968024   -0.118482
H     -1.400652    3.704640    1.501932
H     -2.394703    4.197786    0.071075
H     -1.262539   -0.498026    1.887536
H      0.474638   -0.571961    1.535070
H      0.324544   -2.930970    0.785025
H     -1.623091   -4.165027    1.474009
H     -2.529935   -2.573277    1.848919
