26

C     -2.948264    0.011200   -0.082433
C     -1.475073    0.296313    0.259930
C     -0.541933   -0.049604   -0.933843
C      0.874338    0.601657   -0.871728
C      1.705665    0.347374    0.422277
C      2.064494   -1.137938    0.628458
O      2.884927   -1.289851    1.756087
O      2.880618    1.121028    0.390788
O      0.776653    1.981479   -1.132999
O     -0.445049   -1.444245   -1.081468
O     -1.101809   -0.392868    1.428812
O     -3.760669    0.344415    1.009094
H     -3.249645    0.620151   -0.964385
H     -3.079173   -1.065837   -0.332509
H     -1.403203    1.383546    0.470636
H     -1.026314    0.362726   -1.851610
H      1.456534    0.173024   -1.717247
H      1.123048    0.689093    1.302176
H      2.564923   -1.549307   -0.278622
H      1.145651   -1.730328    0.803209
H      3.817507   -1.125743    1.457908
H      3.416061    0.821985   -0.390720
H      0.448799    2.427663   -0.310071
H     -0.137703   -1.619879   -2.009202
H     -1.299246   -1.356357    1.293851
H     -4.691137    0.136245    0.733611
