34

C     -0.226832    0.295378   -1.904836
C      1.227801    0.392389   -2.269372
O      1.550406    0.672601   -3.455020
C      2.255392    0.095733   -1.243458
C      3.623809   -0.057450   -1.553676
C      4.533707   -0.386313   -0.537648
C      4.092232   -0.571793    0.778577
C      2.738380   -0.417125    1.085297
C      1.824703   -0.070661    0.086448
O      0.475644    0.104432    0.418729
C     -0.453000    0.763946   -0.454542
C     -1.880914    0.439785   -0.040214
C     -2.189969   -0.794468    0.563412
C     -3.512956   -1.113427    0.901532
C     -4.543134   -0.208043    0.621705
C     -4.248734    1.009637   -0.003667
C     -2.930956    1.327424   -0.341723
O     -5.856327   -0.527601    0.962096
O     -3.811096   -2.330521    1.511892
O     -0.228913    2.152298   -0.388927
O      4.991217   -0.907982    1.788290
O      4.079931    0.106008   -2.861554
H     -0.835638    0.913208   -2.601542
H     -0.540108   -0.765862   -2.015039
H      5.583849   -0.505760   -0.773096
H      2.396812   -0.553741    2.103712
H     -1.407343   -1.514227    0.767859
H     -5.042313    1.708911   -0.234543
H     -2.732655    2.266513   -0.842730
H     -6.622939    0.106798    0.770381
H     -3.088221   -3.007507    1.726458
H     -0.259909    2.407764    0.570445
H      5.979683   -1.027061    1.599486
H      5.058391   -0.003279   -3.101532
