27

C     -2.861280    0.322699   -0.035850
C     -1.432812   -0.149059    0.264679
C     -1.153603   -1.546482   -0.306266
C      0.080442   -1.423486   -1.192911
C      0.787950   -0.130304   -0.778384
C     -0.371769    0.784920   -0.349242
C      0.083504    1.887919    0.618135
O      0.831981    1.316337    1.688125
C      1.780904    0.313865    1.473093
C      1.819924   -0.376857    0.320266
C      2.926125   -1.325654    0.062127
O      3.769947   -1.610972    0.953619
O      0.880101    2.813927   -0.071174
H     -3.593663   -0.367856    0.433787
H     -3.022736    1.339199    0.380898
H     -3.045639    0.349293   -1.131459
H     -1.309813   -0.194047    1.370778
H     -0.943326   -2.254871    0.525446
H     -2.007359   -1.949498   -0.895158
H     -0.245021   -1.329442   -2.253005
H      0.718590   -2.328826   -1.113520
H      1.313726    0.312464   -1.653492
H     -0.786526    1.265501   -1.265913
H     -0.807950    2.409256    1.033785
H      2.490234    0.109721    2.264929
H      3.024300   -1.784607   -0.912777
H      1.073771    3.546861    0.569485
