23

C     -2.097785    0.885570    0.548476
C     -1.471623   -0.505709    0.309496
C     -0.486300   -0.558350   -0.889041
C      0.704606    0.349201   -0.666477
C      1.738421    0.078982    0.159421
C      2.839683    1.060069    0.312949
O      2.818475    2.159873   -0.304530
O      3.914652    0.771765    1.148922
N      1.810105   -1.151420    0.898478
O     -1.149030   -0.179406   -2.068859
O     -2.471311   -1.486764    0.181801
O     -2.876452    1.299240   -0.543144
H     -1.294631    1.634029    0.714603
H     -2.710928    0.861605    1.479163
H     -0.903436   -0.753064    1.231050
H     -0.134477   -1.608053   -1.012325
H      0.706127    1.278145   -1.225480
H      4.674888    1.431140    1.265455
H      1.103701   -1.912201    0.806737
H      2.602206   -1.332030    1.553744
H     -0.575488   -0.464917   -2.828013
H     -2.952708   -1.324746   -0.670474
H     -3.788694    0.934350   -0.401951
