50

C     -7.047761   -1.049764   -1.778957
C     -6.255172   -2.131095   -1.051576
C     -6.036042   -1.758762    0.392777
C     -4.995863   -1.032170    0.839288
C     -3.881374   -0.536592   -0.051110
C     -2.853838    0.297650    0.736581
C     -1.700682    0.711811   -0.143526
C     -0.637972    1.339038    0.366267
C      0.492125    1.735312   -0.497601
C      1.617353    2.307068   -0.046799
C      1.907515    2.612253    1.400643
C      2.186797    1.347351    2.237039
C      3.656915    0.883594    2.210089
C      4.193454    0.458253    0.831953
C      3.483598   -0.782000    0.263797
C      3.943982   -1.137075   -1.161238
C      5.343924   -1.774415   -1.227765
C      6.444055   -0.756557   -1.232671
O      6.494517    0.121328   -2.134383
O      7.435722   -0.799249   -0.260368
O     -3.462186    1.428966    1.310380
H     -7.210040   -1.355455   -2.834040
H     -8.037503   -0.907965   -1.294373
H     -6.498454   -0.085602   -1.770885
H     -6.836151   -3.077489   -1.087261
H     -5.292843   -2.316408   -1.573333
H     -6.781190   -2.083876    1.113361
H     -4.956553   -0.809317    1.902463
H     -3.364885   -1.414227   -0.497592
H     -4.304588    0.080283   -0.872078
H     -2.448540   -0.335805    1.556704
H     -1.732283    0.483625   -1.203727
H     -0.617944    1.556364    1.426642
H      0.408566    1.566253   -1.565098
H      2.359604    2.602486   -0.778229
H      2.780907    3.297143    1.458826
H      1.047525    3.167180    1.833546
H      1.509739    0.514707    1.958839
H      1.944478    1.588892    3.294830
H      3.769811    0.030820    2.914675
H      4.296819    1.705962    2.598086
H      5.268185    0.222092    0.966316
H      4.135907    1.304569    0.118527
H      2.392924   -0.589055    0.209193
H      3.635763   -1.649835    0.941705
H      3.878531   -0.245331   -1.822793
H      3.221666   -1.880312   -1.564610
H      5.423798   -2.361792   -2.167868
H      5.485661   -2.484862   -0.384894
H     -3.807975    1.992011    0.568372
