21

C      3.441149    0.713926    0.081686
C      2.292826    0.114850    0.378602
C      1.421930   -1.133697    0.552485
C      0.824561    0.142845    0.810017
C     -0.094128    0.720985   -0.277046
C     -1.575314    0.429492    0.024088
C     -1.851572   -1.047421   -0.047819
O     -1.858903   -1.639953   -1.160689
O     -2.068451   -1.767912    1.122523
N     -2.428333    1.137287   -0.932029
H      4.302023    0.122116   -0.208713
H      3.516242    1.794592    0.129048
H      1.716540   -1.721951    1.446294
H      1.203461   -1.626370   -0.418702
H      0.692709    0.451845    1.868732
H      0.060150    1.821723   -0.291546
H      0.168913    0.340204   -1.290438
H     -1.811746    0.790387    1.051592
H     -2.241278   -2.765592    1.093698
H     -2.283327    2.165724   -0.806030
H     -3.427449    0.956920   -0.678063
