43

C     -7.125550    0.567342   -0.825404
C     -6.019729    0.660585    0.153125
O     -7.285778    1.216612    0.416311
C     -4.966052    1.739929   -0.107730
O     -3.972247    1.255028   -1.009737
C     -2.990379    0.298702   -0.702841
C     -2.816455   -0.226719    0.592413
C     -1.821198   -1.176661    0.840199
C     -0.989681   -1.621085   -0.198881
C     -1.153096   -1.086049   -1.485431
C     -2.148666   -0.137057   -1.732913
C      0.107776   -2.612237    0.078262
C      1.362864   -1.894396    0.494275
C      1.604902   -1.616544    1.848037
C      2.752503   -0.916081    2.229509
C      3.668352   -0.470922    1.269014
C      3.422649   -0.744316   -0.090162
C      2.275374   -1.445595   -0.472511
O      4.801822    0.231441    1.709674
C      5.764888    0.860864    0.865720
C      5.168912    2.120795    0.232568
C      5.169862    2.214048   -1.246738
O      6.155139    2.845885   -0.465138
H     -7.138142    1.294252   -1.664812
H     -7.677490   -0.395112   -0.848772
H     -5.808169   -0.226545    0.785710
H     -5.432606    2.643197   -0.557646
H     -4.501296    2.061337    0.847887
H     -3.436484    0.094106    1.416961
H     -1.696117   -1.563649    1.843984
H     -0.508472   -1.401889   -2.296286
H     -2.266095    0.264484   -2.731452
H     -0.210626   -3.320662    0.874478
H      0.303793   -3.229894   -0.825747
H      0.904302   -1.940247    2.607840
H      2.928358   -0.711427    3.278031
H      4.109467   -0.425208   -0.859206
H      2.098146   -1.638972   -1.523273
H      6.150910    0.139253    0.113540
H      6.624781    1.165748    1.498476
H      4.515993    2.800722    0.819282
H      5.601901    1.372018   -1.826897
H      4.471632    2.954917   -1.687904
