25

C     -2.958136   -1.956760    0.258185
O     -3.050043   -0.537716    0.333016
C     -1.957626    0.337858    0.226691
C     -2.196771    1.714898    0.321569
C     -1.135283    2.620576    0.216054
C      0.167353    2.160156    0.018540
C      0.433506    0.782642   -0.073014
C     -0.640814   -0.123719    0.027468
C      1.828462    0.310784   -0.284655
O      2.702410    1.132437   -0.679396
C      2.209530   -1.136342   -0.085379
C      3.689239   -1.314915    0.067858
O      4.227868   -1.179680    1.199087
O      4.473769   -1.588342   -1.048190
O     -3.496989    2.176653    0.519988
H     -2.555256   -2.261830   -0.730672
H     -3.971212   -2.392226    0.378034
H     -2.307721   -2.340947    1.072217
H     -1.319155    3.685070    0.288219
H      0.968823    2.884817   -0.054242
H     -0.457590   -1.184169   -0.063308
H      1.712556   -1.532589    0.826305
H      1.859008   -1.726636   -0.958501
H      5.477465   -1.696161   -0.963672
H     -3.703393    3.166143    0.592416
