22

C     -0.370446    1.153859    0.079213
C     -1.734156    1.047501    0.363651
C     -2.435481   -0.121303    0.041293
C     -1.760283   -1.192152   -0.566948
C     -0.394357   -1.082761   -0.851198
C      0.312363    0.093603   -0.544737
C      1.799653    0.173217   -0.833277
C      2.641587   -0.184514    0.405149
O      2.370144    0.690933    1.465714
O      2.153125    1.425161   -1.372678
O     -2.427716   -2.372159   -0.893873
O     -3.796356   -0.223219    0.325653
H      0.146649    2.063482    0.353147
H     -2.245165    1.874691    0.839844
H      0.115575   -1.920301   -1.311677
H      2.046883   -0.581180   -1.612272
H      3.720783   -0.127271    0.139064
H      2.411962   -1.229200    0.714580
H      2.943495    0.395673    2.219921
H      2.221791    2.081905   -0.632747
H     -3.415075   -2.501199   -0.708063
H     -4.304976    0.535233    0.764926
