20

C      3.496093   -0.114988    0.313830
C      2.079995   -0.490929    0.030004
N      1.668478   -1.768940   -0.121707
C      0.355322   -1.659953   -0.407485
C      0.009609   -0.326812   -0.442281
N      1.096267    0.409054   -0.162094
C     -1.361669    0.232023   -0.666340
C     -2.093993    0.407954    0.669469
N     -3.434207    0.955631    0.472118
H      4.015611    0.113558   -0.639694
H      4.017895   -0.952165    0.823258
H      3.525683    0.779343    0.970898
H     -0.304790   -2.500329   -0.576810
H      1.162853    1.449754   -0.102545
H     -1.274668    1.213520   -1.180387
H     -1.936719   -0.454833   -1.324584
H     -1.516400    1.094226    1.326953
H     -2.177230   -0.574331    1.184259
H     -3.353950    1.877068   -0.016579
H     -3.974181    0.311149   -0.150282
