48

C     -5.536038   -0.761220   -1.510275
C     -4.372920   -0.687435   -0.491356
C     -4.188707   -2.088867    0.133887
C     -4.790386    0.306698    0.614689
C     -3.078122   -0.212452   -1.247807
C     -1.779673   -0.110012   -0.395827
N     -1.832000    1.008004    0.550118
C     -1.932157    2.316406    0.256710
N     -1.857895    3.072092    1.368836
C     -1.695712    2.146569    2.339713
N     -1.666058    0.890384    1.854912
O     -0.667665    0.081626   -1.275412
C      0.685943    0.029351   -0.906091
C      1.112470   -0.370239    0.373904
C      2.474499   -0.399500    0.687039
C      3.436854   -0.033890   -0.270585
C      3.005441    0.358281   -1.549802
C      1.643425    0.386007   -1.861082
C      4.884092   -0.063516    0.062646
C      5.420421   -1.113627    0.832175
C      6.783237   -1.138805    1.144048
C      7.624405   -0.118932    0.693863
C      7.104646    0.928447   -0.069838
C      5.742830    0.958321   -0.385610
O     -2.832633   -1.094322   -2.319387
H     -5.328594   -1.510937   -2.303609
H     -5.695049    0.226487   -1.994884
H     -6.484994   -1.057774   -1.012636
H     -3.466354   -2.065929    0.975850
H     -5.152820   -2.462700    0.541931
H     -3.829794   -2.817878   -0.623453
H     -5.811969    0.075943    0.987290
H     -4.119294    0.241443    1.492110
H     -4.791435    1.349155    0.230398
H     -3.292434    0.802859   -1.660684
H     -1.633805   -1.064570    0.149640
H     -2.040578    2.717553   -0.742463
H     -1.590612    2.388065    3.388653
H      0.405647   -0.665278    1.134873
H      2.774000   -0.693531    1.685194
H      3.721822    0.627107   -2.315889
H      1.329066    0.687981   -2.852194
H      4.790309   -1.923675    1.177248
H      7.187938   -1.952031    1.732633
H      8.678921   -0.140236    0.936791
H      7.756875    1.720286   -0.414995
H      5.358605    1.788799   -0.964412
H     -2.453751   -0.560507   -3.066372
