45

C      2.229580   -1.602126   -1.289902
C      2.333188   -1.013343    0.123944
C      1.162956   -0.029023    0.432388
C      1.613779    0.948016    1.530824
C      2.869806    1.737955    1.079874
C      3.691088    0.917454    0.044935
O      3.633354   -0.467924    0.342486
O      5.029000    1.343634   -0.007701
N      3.680735    2.087698    2.251810
O      0.581286    1.851958    1.831138
O      0.038418   -0.765707    0.893935
C     -1.041547   -0.694546   -0.017889
C     -2.076083   -1.782618    0.352922
C     -3.514987   -1.345638   -0.024216
C     -3.507805   -0.410429   -1.250704
C     -2.530664    0.788265   -1.025896
O     -1.645391    0.583760    0.066160
C     -3.302601    2.052871   -0.784522
O     -3.709466    2.340923    0.373544
O     -3.619259    2.883379   -1.854725
O     -3.103675   -1.126923   -2.392848
O     -4.111614   -0.673271    1.056136
O     -1.761164   -2.980760   -0.311850
O      3.310849   -2.460491   -1.527231
H      1.280086   -2.174552   -1.382399
H      2.230095   -0.786506   -2.045701
H      2.237019   -1.866175    0.831875
H      0.946678    0.588824   -0.475101
H      1.869714    0.352558    2.440496
H      2.545424    2.678737    0.576701
H      3.267917    1.102157   -0.968690
H      5.511286    0.908363    0.742787
H      4.394809    2.794909    1.961953
H      3.070483    2.582696    2.942711
H     -0.047093    1.384996    2.439129
H     -0.679308   -0.896008   -1.057619
H     -2.048867   -1.961728    1.455538
H     -4.127834   -2.245587   -0.270882
H     -4.547875   -0.036965   -1.417191
H     -1.924795    0.955922   -1.946054
H     -4.158179    3.728896   -1.713474
H     -3.860006   -1.717766   -2.647503
H     -4.406678   -1.370072    1.699618
H     -0.968313   -3.362609    0.149623
H      3.165654   -2.843201   -2.432292
