22

C     -0.093047    1.370277    0.500042
C      1.073832    0.894997   -0.367573
C      1.509842   -0.538134    0.053395
O      0.578018   -1.213221    0.895333
C     -0.771468   -1.105301    0.462899
C     -1.265767    0.374853    0.386738
O     -2.222774    0.636861    1.384691
C     -1.021568   -1.914153   -0.789441
O     -0.983648   -1.381976   -1.930509
O     -1.240171   -3.282219   -0.686548
O      1.826332   -1.327196   -1.064942
O      0.699696    0.937870   -1.723151
O     -0.496034    2.651041    0.087678
H      0.265597    1.414525    1.556439
H      1.925404    1.597749   -0.199857
H      2.440043   -0.416178    0.654023
H     -1.379107   -1.609917    1.245449
H     -1.768979    0.552783   -0.588586
H     -1.786465    0.494394    2.265602
H      2.214244   -2.171169   -0.714628
H      1.537355    1.003210   -2.252288
H     -1.041334    3.030905    0.825234
