40

C     -5.532126    1.988872   -0.806467
C     -5.236757    1.129063    0.417776
O     -4.191379    0.196602    0.141416
C     -2.821061    0.499811    0.056799
C     -1.942015   -0.520290   -0.340456
C     -0.561647   -0.252360   -0.435856
C     -0.054223    1.016188   -0.109570
C     -0.941421    2.029809    0.268547
C     -2.310555    1.776394    0.359679
N      1.349317    1.311513   -0.212957
C      2.394500    0.381252    0.100366
O      2.130467   -0.711618    0.673280
O      3.717516    0.717469   -0.207871
C      4.837994   -0.106547    0.116005
C      5.160833    0.001896    1.609074
C      6.035557    0.335187   -0.722747
O     -2.487101   -1.780700   -0.643154
C     -1.743781   -2.961471   -0.947433
C     -1.109638   -3.542905    0.311902
H     -6.375818    2.675717   -0.584768
H     -4.645348    2.593509   -1.086395
H     -5.812110    1.340911   -1.663792
H     -6.154081    0.557395    0.671771
H     -4.986076    1.758506    1.297551
H      0.116942   -1.013204   -0.789284
H     -0.567717    3.018231    0.505541
H     -2.959003    2.582617    0.670294
H      1.634141    2.290703   -0.441321
H      4.611733   -1.166638   -0.136305
H      4.303740   -0.359326    2.214543
H      6.046782   -0.620713    1.857272
H      5.370180    1.057880    1.883819
H      6.915906   -0.307516   -0.507622
H      6.294451    1.393387   -0.503834
H      5.790225    0.244924   -1.802213
H     -2.444651   -3.714947   -1.364364
H     -0.977036   -2.759590   -1.724750
H     -0.579719   -4.485710    0.060903
H     -1.896826   -3.762468    1.063786
H     -0.380194   -2.831836    0.750835
