38

C      0.681072   -1.269756   -3.335599
N      1.008391   -0.853567   -1.979432
C      0.139530    0.024233   -1.253108
C      0.380625    0.514680   -0.040027
C     -0.796635    1.284765    0.331812
O     -0.941124    1.928932    1.404759
C     -1.784586    1.236163   -0.783702
O     -1.105942    0.423100   -1.737572
C     -3.079466    0.595294   -0.348884
C     -3.138751   -0.777448   -0.043336
C     -4.339341   -1.354460    0.381410
C     -5.486868   -0.568218    0.511985
C     -5.435036    0.797490    0.221364
C     -4.236567    1.379400   -0.203665
C      1.591116    0.328453    0.787443
C      2.871261    0.524790    0.241958
C      4.020866    0.375951    1.038362
C      3.875129   -0.006307    2.383097
C      2.603549   -0.185282    2.932595
C      1.465740   -0.009707    2.142782
C      5.392395    0.533369    0.431032
F      5.788248   -0.672602   -0.116372
F      5.376944    1.496537   -0.562973
F      6.313905    0.917248    1.390023
H      1.460641   -1.962679   -3.716637
H     -0.298895   -1.792013   -3.343438
H      0.633569   -0.381214   -3.999704
H      1.863320   -1.248996   -1.529132
H     -1.939008    2.253205   -1.205170
H     -2.256563   -1.399242   -0.130538
H     -4.379209   -2.411143    0.612307
H     -6.415182   -1.016387    0.841879
H     -6.323482    1.406432    0.327939
H     -4.211773    2.440588   -0.418268
H      2.970786    0.806770   -0.799341
H      4.743574   -0.164351    3.010085
H      2.499896   -0.467215    3.972484
H      0.487872   -0.159960    2.583584
