50

C     -3.424397    5.097478   -1.133282
C     -2.632454    3.799199   -1.004779
C     -2.957486    3.083251    0.314420
C     -2.285540    1.705341    0.421763
C     -0.772117    1.804046    0.679792
C     -0.105140    0.423414    0.774464
C     -0.443320   -0.317152    2.080162
C      0.438783   -1.560983    2.297361
C      0.170089   -2.725837    1.306702
C     -1.190708   -3.386155    1.579967
C      1.285446   -3.791419    1.395349
C      2.604368   -3.278815    0.871872
O      3.484099   -2.965409    1.660427
C      2.848091   -3.131359   -0.606082
C      2.837901   -1.682280   -0.999262
C      1.807573   -1.158462   -1.794930
C      1.831213    0.199987   -2.122744
C      2.877947    0.995919   -1.658875
C      3.875007    0.408430   -0.874901
O      4.831051    1.105846   -0.446058
O      3.820111   -0.887117   -0.577634
O      0.820524    0.765791   -2.895730
H     -4.515554    4.887084   -1.123363
H     -3.176180    5.785154   -0.297275
H     -3.169010    5.595674   -2.091726
H     -2.883921    3.140334   -1.863628
H     -1.550371    4.043469   -1.052408
H     -4.058288    2.932814    0.376934
H     -2.656279    3.718865    1.175496
H     -2.477050    1.120434   -0.504347
H     -2.763964    1.164836    1.265812
H     -0.578541    2.382800    1.609685
H     -0.292719    2.347825   -0.161222
H      0.994830    0.573352    0.723474
H     -0.409178   -0.184445   -0.103136
H     -0.267488    0.370736    2.936062
H     -1.514965   -0.595985    2.102754
H      0.286015   -1.925785    3.337050
H      1.499804   -1.238844    2.232214
H      0.149555   -2.342730    0.266450
H     -2.020248   -2.674797    1.395292
H     -1.248563   -3.749545    2.628239
H     -1.345005   -4.248059    0.896892
H      1.401855   -4.127258    2.449888
H      1.005117   -4.686981    0.799247
H      3.835734   -3.571291   -0.859774
H      2.079939   -3.697225   -1.177351
H      0.999208   -1.788657   -2.142904
H      2.913217    2.051007   -1.900596
H      0.041009    0.213503   -3.233636
