24

C      0.066649    1.102805    0.282745
C     -1.397216    1.329428    0.664064
C     -2.073817   -0.014631    0.989889
C     -1.782594   -1.078079   -0.048467
C     -0.725119   -1.012549   -0.875405
C      0.154732    0.218474   -0.978272
C      1.612147   -0.149806   -1.329010
C      2.275564   -1.018642   -0.289243
O      2.038484   -2.256319   -0.280068
C      3.183997   -0.456482    0.724103
O      3.439856    0.776413    0.746085
O      3.766739   -1.290299    1.670356
O     -3.459354    0.156040    1.144242
H      0.552104    2.083479    0.086602
H      0.588029    0.622930    1.138893
H     -1.923589    1.833776   -0.176450
H     -1.450170    1.995445    1.552378
H     -1.667120   -0.380449    1.957414
H     -2.391801   -1.977172   -0.051703
H     -0.566493   -1.827381   -1.576245
H     -0.239161    0.817107   -1.829546
H      2.198845    0.781352   -1.484100
H      1.625750   -0.688543   -2.301839
H     -3.826461    0.433101    0.263578
