40

C      3.900849   -0.557722    1.129065
C      2.924085   -0.352195   -0.047925
C      3.633885    0.417054   -1.174821
C      2.478240   -1.733014   -0.569080
C      1.711888    0.443929    0.392794
O      1.788450    1.233675    1.375294
O      0.521935    0.348600   -0.341054
C     -0.658413    1.096858   -0.043685
C     -0.485903    2.530286   -0.587069
C     -1.550942    3.454119   -0.078066
O     -1.539573    3.832997    1.122733
O     -2.565563    3.882492   -0.924750
C     -1.879715    0.394570   -0.704143
N     -2.403158   -0.811269    0.013422
C     -1.341353   -1.817410    0.252184
C     -3.030539   -0.434629    1.304449
C     -3.446269   -1.432258   -0.840197
H      3.394750   -1.083709    1.967559
H      4.281122    0.417358    1.503605
H      4.775251   -1.166283    0.811707
H      3.965695    1.415955   -0.816936
H      2.949692    0.566532   -2.038407
H      4.526803   -0.142048   -1.529282
H      3.358029   -2.340563   -0.873005
H      1.926419   -2.287524    0.220774
H      1.813641   -1.629417   -1.454050
H     -0.790637    1.152889    1.055772
H      0.499420    2.936057   -0.273141
H     -0.496985    2.518596   -1.698781
H     -2.706008    1.131864   -0.819313
H     -1.580888    0.120945   -1.742868
H     -1.769538   -2.765805    0.647847
H     -0.797567   -2.053299   -0.689602
H     -0.607278   -1.462874    1.007540
H     -2.280108   -0.096229    2.048411
H     -3.554675   -1.303613    1.762420
H     -3.777126    0.378919    1.166065
H     -3.891820   -2.328368   -0.351799
H     -4.272933   -0.715698   -1.047759
H     -3.023164   -1.759767   -1.816665
