26

C     -2.897113   -1.247229    0.262516
C     -2.229107   -0.201178   -0.634412
C     -1.009979    0.467540    0.050646
C     -0.882742    1.928721   -0.423230
N      0.261283    2.560355    0.221757
C      1.470767    1.821452    0.397055
O      2.499308    2.402650    0.836249
C      1.492893    0.373775    0.079353
C      0.322898   -0.265997   -0.164149
O      0.361305   -1.600399   -0.583192
C      2.805452   -0.318930   -0.010888
O      3.791403    0.289565   -0.507377
C      3.002693   -1.722741    0.476332
H     -3.681173   -1.783815   -0.312088
H     -3.377438   -0.748077    1.130984
H     -2.165994   -1.986953    0.646144
H     -3.007111    0.560043   -0.864411
H     -1.940250   -0.647985   -1.609689
H     -1.195271    0.502714    1.148083
H     -1.803541    2.500232   -0.174127
H     -0.737221    1.955526   -1.525473
H      0.195571    3.548917    0.553546
H     -0.455159   -2.153173   -0.797990
H      2.876485   -2.433611   -0.366555
H      2.275411   -1.962679    1.280577
H      4.026628   -1.838721    0.890338
