42

C      7.353822   -0.763516    0.443033
C      6.750802    0.217919    1.121028
C      5.419366    0.014776    1.790511
C      4.289296   -0.090316    0.758925
C      2.928310   -0.255386    1.451843
C      1.779054   -0.479546    0.455506
C      1.371092    0.812513   -0.273698
C      0.250519    0.582847   -1.300430
C     -1.102966    0.273470   -0.644753
C     -2.199611    0.246161   -1.676455
O     -2.204903   -0.632697   -2.525533
C     -3.301315    1.269434   -1.667252
C     -4.571454    0.653985   -1.163615
C     -4.793692    0.502894    0.213226
C     -5.980068   -0.091062    0.643718
C     -6.912794   -0.520899   -0.304301
C     -6.624661   -0.343628   -1.661106
O     -7.447682   -0.724678   -2.534208
O     -5.482353    0.226076   -2.036389
O     -6.221036   -0.249807    2.006365
H      6.891813   -1.741587    0.344436
H      8.321095   -0.590766   -0.016829
H      7.249365    1.177317    1.218734
H      5.455612   -0.903099    2.417755
H      5.224345    0.881233    2.459196
H      4.472749   -0.964888    0.097258
H      4.287503    0.829964    0.136910
H      2.977285   -1.140545    2.124277
H      2.712838    0.634504    2.083363
H      0.909259   -0.860249    1.030627
H      2.064231   -1.261695   -0.281279
H      1.051940    1.580535    0.464947
H      2.246972    1.217932   -0.822265
H      0.535901   -0.242643   -1.989378
H      0.148905    1.508938   -1.908588
H     -1.325772    1.038544    0.130213
H     -1.071275   -0.717114   -0.144990
H     -3.028159    2.137912   -1.029204
H     -3.451235    1.657297   -2.697967
H     -4.057622    0.837318    0.934287
H     -7.841208   -0.984928    0.006315
H     -7.074268   -0.677690    2.345765
