46

C     -3.671729   -1.764803    1.275642
N     -3.785513   -0.290476    1.174247
C     -4.034641    0.240993    2.539566
C     -4.963784    0.065420    0.344738
C     -2.531445    0.352533    0.649103
C     -1.737090   -0.384144   -0.475579
C     -2.475576   -0.419329   -1.826663
C     -1.555474   -0.805013   -2.946280
O     -1.260509   -2.014429   -3.135599
O     -0.987448    0.175536   -3.749840
O     -0.492871    0.298894   -0.661632
C      0.621348    0.128043    0.167928
O      0.593764   -0.688662    1.128982
C      1.877531    0.880670   -0.132097
C      2.689824    0.148490   -1.207691
C      3.921955    0.942276   -1.673093
C      4.989422    1.194081   -0.589948
C      5.700788   -0.080982   -0.101811
C      4.970041   -0.750692    1.022771
O      4.616524   -1.955716    0.917958
O      4.713404   -0.053184    2.199198
H     -2.755195   -2.053702    1.836941
H     -4.548915   -2.199880    1.805744
H     -3.641162   -2.242445    0.273837
H     -4.985191   -0.152885    2.966023
H     -4.102309    1.352600    2.529016
H     -3.216850   -0.045659    3.239033
H     -5.905893   -0.307467    0.806914
H     -4.920980   -0.381382   -0.663268
H     -5.058517    1.168405    0.230669
H     -2.741843    1.391995    0.308709
H     -1.806670    0.475960    1.485844
H     -1.513284   -1.431821   -0.179909
H     -3.282367   -1.177106   -1.801014
H     -2.920182    0.574892   -2.048755
H      2.469193    0.981017    0.801520
H      1.610350    1.899084   -0.488017
H      2.990995   -0.855710   -0.846351
H      2.039483   -0.011474   -2.096247
H      3.583041    1.924760   -2.068666
H      4.391725    0.401367   -2.523280
H      4.567765    1.771465    0.259594
H      5.761871    1.850605   -1.046914
H      5.849656   -0.789630   -0.945899
H      6.708895    0.195895    0.274776
H      4.227865   -0.496120    2.969797
