30

C     -4.090324    0.472961    1.070101
C     -3.244621   -0.684208    0.540078
C     -3.188179   -0.726291   -0.996044
C     -2.439260    0.463420   -1.614036
O     -1.129206    0.595937   -1.064255
C     -0.067082   -0.260856   -1.379514
O     -0.214879   -1.157032   -2.255848
C      1.229916   -0.108808   -0.684587
C      2.318773   -0.939079   -1.005469
C      3.541264   -0.792356   -0.343474
C      3.693446    0.175357    0.661607
C      2.614413    1.018467    0.969327
C      1.391375    0.873067    0.308070
N      4.961689    0.353657    1.311068
H     -5.102334    0.456750    0.612602
H     -3.601496    1.445910    0.855752
H     -4.198528    0.376571    2.170986
H     -3.692774   -1.636058    0.898724
H     -2.218921   -0.620050    0.963188
H     -4.220776   -0.759096   -1.406609
H     -2.684563   -1.667508   -1.303765
H     -3.003306    1.399887   -1.424573
H     -2.377684    0.337426   -2.716883
H      2.228424   -1.699462   -1.771135
H      4.371028   -1.433698   -0.613180
H      2.721647    1.788359    1.723207
H      0.574185    1.532019    0.573485
H      5.473953   -0.556507    1.365740
H      4.825263    0.710738    2.284558
H      5.528557    1.040484    0.764004
