27

C     -1.799826   -0.551515   -0.331204
C     -0.907716   -1.634880    0.296790
C      0.577516   -1.275177    0.110655
C      0.807817    0.156960    0.649552
O     -0.016567    1.095086   -0.032146
C     -1.402312    0.855312    0.189615
C     -2.175199    1.890342   -0.589355
O     -3.351083    2.196656   -0.256176
O     -1.620130    2.465735   -1.726700
O     -1.694582    0.999151    1.564316
C      2.294452    0.589081    0.557068
C      2.763182    0.831370   -0.856954
O      2.298085    1.741303   -1.525407
O      2.532500    1.727717    1.347027
O      0.926701   -1.340987   -1.250279
O     -1.197998   -2.908911   -0.224364
H     -2.865486   -0.768067   -0.097503
H     -1.686330   -0.577678   -1.438395
H     -1.122687   -1.669589    1.387897
H      1.196727   -1.986060    0.708639
H      0.569196    0.153202    1.738645
H     -2.633184    0.712701    1.716941
H      2.915500   -0.231830    0.977064
H      3.530429    0.194714   -1.285549
H      1.952397    2.459318    1.008612
H      1.246169   -2.264483   -1.424989
H     -1.137571   -2.859474   -1.213799
