49

C      2.219371    0.436773    2.595456
C      3.118725   -0.282590    1.622417
C      2.922599   -0.209183    0.214800
C      3.783281   -0.954410   -0.639342
C      4.840869   -1.702032   -0.092542
C      5.036535   -1.735110    1.285680
C      4.183191   -1.039578    2.135530
O      5.709909   -2.426832   -0.908806
O      3.613808   -0.980905   -2.028080
C      1.794939    0.623280   -0.373108
C      0.554559   -0.243695   -0.655178
C     -0.551004    0.534848   -1.428940
C     -1.659799    1.177600   -0.556569
C     -1.296666    1.872115    0.751413
C     -2.634197    2.008275    1.495518
C     -3.675371    1.199888    0.697153
C     -2.846496    0.267299   -0.217244
C     -3.554840   -0.089790   -1.537766
C     -2.611390   -0.815743   -2.521163
C     -1.169193   -0.326181   -2.527695
O     -0.460226   -0.661052   -3.465292
C     -2.453773   -1.029052    0.548421
O     -4.534321    0.502085    1.562290
H      2.318071    1.534553    2.465390
H      2.477039    0.197828    3.649272
H      1.167091    0.127858    2.436076
H      5.851949   -2.313131    1.702173
H      4.356039   -1.095990    3.203355
H      5.620040   -2.442640   -1.917514
H      2.849468   -0.537290   -2.518034
H      2.144890    1.123009   -1.299882
H      1.520162    1.460893    0.296508
H      0.180158   -0.643493    0.305141
H      0.877633   -1.127818   -1.246850
H     -0.058633    1.378222   -1.964804
H     -2.061821    2.002360   -1.197937
H     -0.832792    2.865101    0.564045
H     -0.605875    1.258510    1.360532
H     -2.940036    3.075661    1.555557
H     -2.531274    1.611201    2.529779
H     -4.268765    1.917551    0.081066
H     -3.932404    0.834430   -2.029599
H     -4.440748   -0.730480   -1.335407
H     -2.607471   -1.902760   -2.291886
H     -3.031157   -0.706157   -3.544726
H     -1.800345   -1.688237   -0.055971
H     -1.935818   -0.796468    1.502414
H     -3.360876   -1.622566    0.790028
H     -5.285035    0.169995    1.004319
