31

C     -2.126675   -2.077669    1.276812
C     -1.443229   -1.061226    0.403701
C     -0.096438   -1.238928    0.053805
C      0.554049   -0.315978   -0.772779
C     -0.147902    0.800910   -1.239988
C     -1.496237    0.992373   -0.908201
C     -2.159687    0.053746   -0.078715
O     -3.512667    0.169132    0.296615
C     -4.399754    1.225422   -0.051960
O     -2.158782    2.111813   -1.407917
C      2.011863   -0.494705   -1.118922
C      2.924805    0.340696   -0.198184
C      2.839258   -0.145599    1.225614
O      2.307089    0.576202    2.109471
O      3.324771   -1.401998    1.568245
N      4.314234    0.285411   -0.666915
H     -1.412882   -2.840997    1.655032
H     -2.918769   -2.595477    0.694568
H     -2.588689   -1.574744    2.153519
H      0.449261   -2.097858    0.425943
H      0.356024    1.526025   -1.867833
H     -4.541192    1.260822   -1.152132
H     -5.385963    1.033450    0.418204
H     -4.015440    2.193233    0.332848
H     -1.693546    2.787842   -2.002415
H      2.293864   -1.569074   -1.059716
H      2.170070   -0.184469   -2.174759
H      2.587607    1.402047   -0.236161
H      4.651334   -0.704316   -0.711993
H      4.930479    0.829537   -0.019076
H      4.383143    0.714380   -1.618451
