50

C     -1.879623   -2.787908   -0.546469
C     -2.722653   -1.571906   -0.772731
C     -3.374616   -0.823999    0.213078
C     -4.016355    0.193981   -0.468945
C     -4.818804    1.242116   -0.015817
C     -5.324329    2.142979   -0.970467
C     -5.021040    1.979342   -2.340031
C     -4.210515    0.912272   -2.767707
C     -3.724194    0.034212   -1.800140
N     -2.936131   -1.036086   -1.997550
C     -3.345623   -1.034612    1.702627
C     -2.500741    0.025928    2.435890
N     -1.062246   -0.051592    2.101584
C     -0.670539    0.959701    1.104833
C      0.744941    0.729115    0.643101
C      0.998185   -0.007440   -0.523038
C      2.311808   -0.252797   -0.931328
C      3.396489    0.215878   -0.172085
C      3.137643    0.959838    0.996379
C      1.822665    1.204699    1.403073
C      4.773254   -0.059564   -0.651463
C      5.848018   -0.063109    0.150185
C      7.213743   -0.356055   -0.329449
O      8.090422   -0.683481    0.514145
N      7.577238   -0.247523   -1.711950
O      8.806325   -0.637734   -2.126974
H     -0.930021   -2.503759   -0.050883
H     -1.641401   -3.274975   -1.515141
H     -2.426474   -3.516526    0.087052
H     -5.051527    1.361370    1.034058
H     -5.950091    2.966860   -0.653015
H     -5.414996    2.679105   -3.065478
H     -3.972065    0.779064   -3.814994
H     -2.563491   -1.381235   -2.910367
H     -4.388239   -0.984591    2.083282
H     -2.963257   -2.048347    1.945258
H     -2.912240    1.042978    2.247618
H     -2.628186   -0.154915    3.526935
H     -0.509439    0.124262    2.973794
H     -0.812054   -1.009451    1.763671
H     -1.349659    0.936084    0.227056
H     -0.752363    1.978237    1.547224
H      0.178783   -0.390518   -1.118531
H      2.481610   -0.820818   -1.838075
H      3.941845    1.373024    1.589261
H      1.644110    1.770676    2.309139
H      4.884457   -0.334649   -1.691866
H      5.729300    0.088268    1.214677
H      6.921545    0.159751   -2.414001
H      9.370527    0.173848   -2.050395
