35

C      0.307026    0.638249    0.839925
C      0.142116   -0.114010   -0.498403
C      1.429350   -0.024341   -1.295292
O      1.404530   -0.072798   -2.556070
C      2.724865    0.015519   -0.583585
C      2.719690    0.117289    0.817397
O      1.509072    0.247966    1.503936
C      3.923265    0.081724    1.529109
C      5.140476   -0.025099    0.847983
C      5.150705   -0.103996   -0.551658
C      3.948633   -0.086598   -1.266042
O      6.331957   -0.050445    1.569231
C     -1.062404    0.428538   -1.302332
C     -2.367463    0.233033   -0.571377
C     -2.973029   -1.033374   -0.534938
C     -4.173520   -1.226307    0.163658
C     -4.772033   -0.151163    0.833337
C     -4.167105    1.112653    0.803433
C     -2.970795    1.303952    0.107147
O     -5.965177   -0.346271    1.526661
O     -4.775744   -2.482736    0.197727
H      0.342032    1.734318    0.655010
H     -0.550992    0.425486    1.511529
H     -0.032338   -1.189608   -0.274881
H      3.912986    0.149461    2.609713
H      6.088684   -0.186864   -1.085807
H      3.975773   -0.165522   -2.345577
H      7.229877   -0.126511    1.105727
H     -0.905134    1.505166   -1.535509
H     -1.131722   -0.103568   -2.276520
H     -2.510989   -1.868540   -1.047271
H     -4.622204    1.946925    1.321930
H     -2.512574    2.285186    0.101534
H     -6.421067    0.411961    2.020774
H     -4.366748   -3.279676   -0.276087
