36

C     -0.589228    1.637176    1.009310
C     -0.019005    0.664466   -0.039155
C     -0.876248   -0.620518   -0.111665
C     -2.342610   -0.271336   -0.259885
C     -2.824659    0.983964    0.170422
O     -1.946722    1.943220    0.692221
C     -4.184263    1.289587    0.048864
C     -5.074204    0.350441   -0.482437
C     -4.600468   -0.901650   -0.896882
C     -3.242375   -1.212371   -0.783543
O     -6.425440    0.670316   -0.593599
O     -0.703193   -1.395445    1.045806
C      1.471699    0.377216    0.121091
C      2.299694    0.506752   -1.022492
C      3.655977    0.231549   -0.899417
C      4.205183   -0.162073    0.272418
C      3.445933   -0.318483    1.423676
C      2.061213   -0.053614    1.353682
O      1.287007   -0.223976    2.499143
O      5.561171   -0.364893    0.102327
C      5.882576   -0.079856   -1.266043
O      4.637277    0.296542   -1.869888
H      0.001344    2.577710    1.021810
H     -0.570815    1.196663    2.024794
H     -0.158109    1.183367   -1.016049
H     -0.543520   -1.197972   -1.006995
H     -4.549369    2.257350    0.369143
H     -5.283983   -1.634807   -1.305828
H     -2.891341   -2.185463   -1.104070
H     -7.095769    0.012351   -0.973905
H     -0.986617   -2.319882    0.820087
H      1.901065    0.811965   -1.981729
H      3.910582   -0.641248    2.346349
H      1.691869   -0.530398    3.376065
H      6.605494    0.760791   -1.322760
H      6.289855   -0.986378   -1.760866
