45

C     -4.427814    1.395204    1.058008
C     -2.944723    1.308407    0.656106
C     -2.445577   -0.153292    0.606575
C     -3.110708   -0.990451   -0.501608
C     -1.941983   -1.655260   -1.178520
C     -0.802850   -0.704344   -0.870744
O     -1.046961   -0.156197    0.402789
O      0.418678   -1.418265   -0.875442
C      1.536853   -0.546010   -0.778728
C      2.676836   -1.149845   -1.569164
C      3.434301   -1.932613   -0.508260
O      3.299931   -1.253391    0.714412
C      2.081361   -0.540514    0.666044
C      2.271778    0.874363    1.271210
C      3.323864    1.735713    0.546960
O      4.589101    1.139542    0.626123
O      1.039119    1.547133    1.278010
O      4.794539   -2.050466   -0.830258
O      3.494526   -0.143759   -2.111507
O     -2.158747   -1.771303   -2.560401
O     -3.972847   -1.961320    0.033776
O     -2.167906    2.014559    1.591306
O     -4.843473    2.733787    1.112580
H     -5.053984    0.879715    0.301779
H     -4.595424    0.891356    2.038299
H     -2.817808    1.757001   -0.358620
H     -2.636091   -0.627292    1.595781
H     -3.651652   -0.347451   -1.236474
H     -1.747832   -2.655464   -0.721280
H     -0.802950    0.111607   -1.633700
H      1.322150    0.480886   -1.159357
H      2.319829   -1.832904   -2.376058
H      2.985295   -2.948206   -0.395662
H      1.360848   -1.074738    1.325822
H      2.614336    0.734294    2.324080
H      3.366253    2.733956    1.037122
H      3.038320    1.895419   -0.514627
H      5.202817    1.724447    0.110271
H      1.103087    2.266106    1.959932
H      4.852650   -2.703101   -1.576299
H      3.030696    0.190458   -2.923155
H     -1.423344   -2.337581   -2.912458
H     -4.808712   -1.491940    0.287469
H     -2.141930    2.961940    1.295117
H     -4.613849    3.069815    2.018111
