41

C     -4.279668    1.452467    0.577711
C     -3.581360    1.026345   -0.723524
C     -3.676653   -0.467837   -1.018852
C     -2.435759   -0.694825   -1.843693
C     -1.472811    0.358501   -1.299669
O     -2.219310    1.390056   -0.681244
O     -0.622645   -0.249023   -0.344345
C      0.457759    0.606971   -0.032405
C      1.348488   -0.067540    1.021783
C      2.536451    0.843877    1.446291
C      3.650903   -0.023437    2.050909
C      4.139058   -1.052823    1.012517
C      3.016213   -1.450023    0.011843
O      1.727409   -1.379125    0.602867
O      3.068111   -0.656303   -1.148548
O      4.608542   -2.191375    1.690522
O      4.730342    0.780125    2.454205
O      2.111924    1.836806    2.349196
O     -2.701520   -0.442596   -3.200402
O     -3.608662   -1.224061    0.164833
O     -5.631669    1.078838    0.564428
H     -4.189675    2.554683    0.705514
H     -3.782907    0.978392    1.450455
H     -4.055773    1.583181   -1.564446
H     -4.610840   -0.701171   -1.581413
H     -2.028202   -1.726739   -1.717909
H     -0.885123    0.782464   -2.148324
H      1.060124    0.826531   -0.941103
H      0.084103    1.568304    0.388377
H      0.709413   -0.214591    1.921185
H      2.949641    1.361688    0.551433
H      3.236468   -0.572793    2.931325
H      4.982062   -0.599547    0.436280
H      3.170527   -2.511617   -0.290250
H      3.849187   -0.966778   -1.678220
H      5.195373   -2.682563    1.057126
H      4.503176    1.142609    3.349669
H      1.811049    1.384334    3.180798
H     -3.156399   -1.250448   -3.555289
H     -3.913238   -2.140494   -0.064959
H     -6.094108    1.709537   -0.048020
