44

C     -3.180299   -2.350659    1.010863
C     -2.691527   -1.032804    0.408364
C     -3.876349   -0.119407    0.034965
C     -3.328133    1.178383   -0.580159
C     -2.290565    1.809717    0.367709
C     -1.231498    0.769237    0.786463
O     -1.834078   -0.392909    1.341658
O     -0.401309    0.437054   -0.318035
C      0.861938   -0.056265    0.104039
C      1.924671    1.041259   -0.087952
C      3.339274    0.467758    0.122546
C      3.516942   -0.810463   -0.731410
O      2.516562   -1.758448   -0.401320
C      1.232206   -1.276750   -0.757235
O      0.294194   -2.292749   -0.531361
C      4.886428   -1.465817   -0.484265
O      5.931156   -0.659911   -0.959855
O      4.294167    1.427699   -0.253251
O      1.691310    2.081405    0.826674
O     -1.652261    2.892139   -0.260672
O     -4.386611    2.072571   -0.812267
O     -4.638370    0.166300    1.182704
H     -3.859514   -2.871355    0.302494
H     -3.717638   -2.171202    1.966333
H     -2.311644   -3.012335    1.214549
H     -2.137032   -1.299400   -0.519742
H     -4.505048   -0.641507   -0.725318
H     -2.833306    0.921053   -1.547884
H     -2.808150    2.159831    1.293225
H     -0.640685    1.260998    1.593870
H      0.873142   -0.394240    1.170369
H      1.841135    1.426550   -1.133574
H      3.465108    0.195209    1.198400
H      3.460468   -0.551717   -1.815470
H      1.196683   -0.995700   -1.838534
H      0.495287   -3.011599   -1.185716
H      4.921354   -2.460783   -0.984536
H      5.032025   -1.638744    0.603578
H      5.927257   -0.743242   -1.949165
H      4.436790    2.017638    0.532330
H      2.071654    2.908183    0.430092
H     -2.244008    3.681543   -0.150350
H     -4.089470    2.694202   -1.526999
H     -5.552256    0.399274    0.872920
