47

C     -3.639988    0.923199    2.229681
C     -2.977236    0.602432    0.882851
C     -4.044958    0.454611   -0.232453
C     -3.511633   -0.400263   -1.416305
C     -1.968605   -0.370925   -1.463637
C     -1.345750   -0.779338   -0.095756
O     -2.232221   -0.595416    1.006051
O     -0.153136   -0.041521    0.106797
C      0.653632   -0.599856    1.135277
C      0.883115    0.456965    2.229847
O      1.153596    1.711094    1.665391
C      1.981403   -1.153311    0.544144
C      2.867836   -0.094358   -0.172718
C      4.175614   -0.725259   -0.722881
C      5.084349    0.300129   -1.428384
O      5.508649    1.301499   -0.541108
O      4.890955   -1.388655    0.290857
O      2.147717    0.491267   -1.230080
O      1.712630   -2.246082   -0.300938
O     -1.465659   -1.153461   -2.519091
O     -3.998296   -1.720133   -1.345866
O     -4.404167    1.735257   -0.686213
O     -2.669239    1.112181    3.223083
H     -4.276960    1.833024    2.139910
H     -4.294313    0.078525    2.534720
H     -2.298667    1.455464    0.639714
H     -4.947296   -0.049997    0.189805
H     -3.886680    0.029352   -2.371346
H     -1.677422    0.682524   -1.675618
H     -1.119982   -1.869204   -0.153659
H      0.167909   -1.462055    1.656074
H     -0.037450    0.531035    2.849285
H      1.719051    0.148060    2.896905
H      1.292068    2.332119    2.426896
H      2.567785   -1.551895    1.400969
H      3.152698    0.675670    0.580765
H      3.898495   -1.484440   -1.486432
H      4.564883    0.740701   -2.310601
H      5.982374   -0.226829   -1.815276
H      4.842893    2.035647   -0.593917
H      5.089266   -0.726250    1.003363
H      2.374516    1.457549   -1.243938
H      1.239527   -1.901370   -1.102176
H     -1.721628   -2.097158   -2.350292
H     -3.725559   -2.104134   -0.472802
H     -5.277461    1.642413   -1.149705
H     -2.276660    2.011195    3.069747
