44

C      3.882039   -1.574016    1.518833
C      3.424596   -0.154742    1.161303
C      4.125262    0.418418   -0.108597
C      3.222562    1.498446   -0.729756
C      1.839400    0.903693   -1.085980
C      1.466046   -0.289601   -0.157127
O      2.000363   -0.078897    1.137264
O      0.058218   -0.397900   -0.034734
C     -0.483086   -1.191459   -1.072294
C     -2.016679   -1.118104   -1.054167
C     -2.542515    0.312542   -1.383212
C     -3.998902    0.445413   -0.910368
C     -4.117524    0.117309    0.601673
C     -2.903273   -0.701866    1.105449
O     -2.531484   -1.681150    0.152487
O     -3.218508   -1.348064    2.310563
O     -5.302720   -0.600193    0.837642
O     -4.453594    1.749856   -1.162382
O     -2.424211    0.593494   -2.756973
O      0.857066    1.910596   -1.059257
O      3.815594    2.040135   -1.882002
O      4.377195   -0.599815   -1.047503
H      3.559243   -2.304575    0.748178
H      3.441492   -1.874924    2.492947
H      4.988872   -1.607114    1.607603
H      3.747409    0.491227    2.007537
H      5.091266    0.881428    0.205254
H      3.086331    2.307456    0.027288
H      1.884175    0.509289   -2.125064
H      1.899554   -1.233286   -0.573644
H     -0.182049   -2.253944   -0.930442
H     -0.127458   -0.852040   -2.071947
H     -2.366990   -1.788398   -1.869684
H     -1.936278    1.068467   -0.836603
H     -4.612424   -0.281542   -1.495284
H     -4.136492    1.065040    1.190536
H     -2.045384   -0.014376    1.296673
H     -3.275991   -0.643411    3.008125
H     -6.049315    0.051279    0.774228
H     -5.443987    1.724352   -1.097946
H     -3.013276   -0.036407   -3.248849
H      0.748325    2.197200   -0.114535
H      4.566992    2.612438   -1.575788
H      5.100139   -0.272256   -1.643749
