41

C      3.592492    0.730102    1.953636
C      2.894083    0.172061    0.704934
C      3.328213    0.943729   -0.564330
C      2.561702    0.409487   -1.784098
C      1.050045    0.373914   -1.490090
C      0.796729   -0.364231   -0.165357
O      1.492415    0.285539    0.886274
O     -0.590901   -0.322311    0.102502
C     -0.926872   -1.255852    1.110006
C     -2.424808   -1.150772    1.441442
C     -3.358249   -1.424961    0.251569
C     -3.734415   -0.037439   -0.193206
C     -3.627443    0.769293    1.098056
O     -2.691868    0.142509    1.948421
O     -3.201047    2.077456    0.828211
O     -5.018562    0.020254   -0.767108
O     -2.742639   -2.135533   -0.792257
O      0.373230   -0.291846   -2.525541
O      2.818886    1.239406   -2.887875
O      4.706492    0.778958   -0.787886
O      3.210824    0.004304    3.091638
H      4.693197    0.636116    1.842047
H      3.354525    1.811491    2.082344
H      3.192601   -0.899192    0.611801
H      3.074497    2.025073   -0.438482
H      2.916899   -0.628637   -1.995229
H      0.667753    1.418354   -1.387487
H      1.140071   -1.423223   -0.283786
H     -0.354038   -1.051735    2.043477
H     -0.700235   -2.295528    0.781819
H     -2.644438   -1.892364    2.240891
H     -4.262967   -1.971115    0.611130
H     -2.991508    0.336828   -0.933529
H     -4.605582    0.795197    1.632597
H     -3.974416    2.548638    0.421091
H     -5.676819   -0.294849   -0.093731
H     -2.712650   -3.085157   -0.504829
H      0.208578    0.377223   -3.240162
H      2.663288    0.694005   -3.702679
H      5.164915    1.561850   -0.384846
H      2.338020    0.372958    3.388228
