44

C      2.247427   -1.227327   -1.574600
C      1.981432    0.140906   -0.919733
C      1.264547    0.068836    0.460102
C      2.240033   -0.264565    1.604994
C      3.523278    0.581300    1.503219
C      4.093827    0.525968    0.069342
O      3.143125    0.960493   -0.892134
O      5.248376    1.320229   -0.017694
O      3.290598    1.904151    1.926462
O      2.561104   -1.632939    1.580008
O      0.229844   -0.905248    0.440988
C     -1.019775   -0.357424    0.053605
C     -1.769822    0.202201    1.296580
C     -3.304809    0.236427    1.081071
C     -3.640287    0.304517   -0.415898
C     -2.998672   -0.925051   -1.127790
O     -1.776590   -1.388834   -0.554212
C     -2.866118   -0.763761   -2.651722
O     -1.845479    0.138872   -2.976544
O     -3.170350    1.510815   -0.967732
O     -3.871817    1.334486    1.747845
O     -1.458661   -0.527914    2.458151
H      2.829976   -1.087070   -2.509549
H      1.285124   -1.714923   -1.839755
H      2.807098   -1.911240   -0.907570
H      1.273868    0.652664   -1.607005
H      0.865514    1.086670    0.684979
H      1.728178   -0.030351    2.568758
H      4.282642    0.148474    2.190803
H      4.415911   -0.514300   -0.149877
H      4.956263    2.268732   -0.043786
H      2.718771    2.351702    1.251049
H      2.915672   -1.863493    2.478356
H     -0.875572    0.463078   -0.687961
H     -1.414307    1.244285    1.453242
H     -3.761490   -0.702653    1.475384
H     -4.747599    0.244163   -0.545196
H     -3.725030   -1.755788   -0.984160
H     -2.633735   -1.756588   -3.098435
H     -3.833628   -0.409611   -3.073556
H     -1.824851    0.186998   -3.967475
H     -3.838073    2.211347   -0.746721
H     -3.832388    1.129145    2.718475
H     -1.693552   -1.477378    2.285646
