45

C     -3.720407    0.383129    1.591894
C     -2.825000    0.854700    0.431643
C     -3.554648    0.868824   -0.943533
C     -3.772586   -0.558638   -1.494168
C     -2.626015   -1.510137   -1.079333
C     -1.367742   -0.714210   -0.676349
O     -1.613406    0.098925    0.463481
O     -0.345649   -1.640722   -0.343597
C      0.932415   -1.205695   -0.774063
C      1.499232   -0.094559    0.136761
C      2.943441    0.291649   -0.263759
C      3.471538    1.480397    0.555725
C      4.594919    0.880235    1.367270
C      4.960450   -0.361660    0.571492
O      3.807031   -0.815148   -0.097218
O      5.957038   -0.050986   -0.366355
O      4.118740    0.520446    2.638971
O      3.970666    2.468472   -0.310434
O      1.429293   -0.473542    1.490108
O     -2.331133   -2.370251   -2.151300
O     -5.004439   -1.068294   -1.048804
O     -4.768517    1.572070   -0.860856
O     -4.747487    1.306115    1.829794
H     -4.149190   -0.618197    1.372988
H     -3.098156    0.293858    2.510730
H     -2.545669    1.908316    0.653656
H     -2.886452    1.415302   -1.651042
H     -3.800179   -0.471287   -2.606706
H     -2.952892   -2.108167   -0.194689
H     -1.084268   -0.062819   -1.538583
H      0.926858   -0.884364   -1.840743
H      1.610237   -2.084340   -0.730057
H      0.867107    0.809440    0.002022
H      2.934923    0.562494   -1.344092
H      2.685915    1.921630    1.215318
H      5.456433    1.583279    1.464288
H      5.331296   -1.160119    1.253936
H      6.209750   -0.907697   -0.799301
H      4.917053    0.329345    3.197449
H      4.105718    3.285939    0.236867
H      1.944546   -1.315527    1.595272
H     -1.920688   -3.187905   -1.765623
H     -5.211937   -1.853714   -1.619799
H     -5.060374    1.751199   -1.792993
H     -5.287763    0.932214    2.573599
