50

C      5.306940   -1.949605    0.232665
C      4.442172   -0.765373    0.673231
C      5.202158    0.593832    0.653121
C      4.224134    1.781707    0.443003
C      2.841818    1.451344    1.044224
C      2.287443    0.117503    0.453454
O      3.297965   -0.684672   -0.153597
O      1.317435    0.438702   -0.527695
C      0.480468   -0.669280   -0.809862
C     -0.830933   -0.564843   -0.012886
C     -1.774637   -1.773006   -0.301825
C     -3.235731   -1.368932   -0.021010
C     -3.635789   -0.123602   -0.855776
C     -2.384653    0.699582   -1.266236
O     -1.437745    0.711677   -0.213918
O     -2.738805    2.023404   -1.569075
N     -4.571642    0.701173   -0.083070
C     -5.990726    0.496506   -0.123321
O     -6.489273   -0.383541   -0.876225
C     -6.887437    1.291522    0.768724
O     -4.114300   -2.440707   -0.260172
O     -1.401331   -2.900416    0.452513
O      2.945192    1.338923    2.442266
O      4.078504    2.064385   -0.927221
O      6.244296    0.625803   -0.294060
H      5.545620   -1.888215   -0.850167
H      6.250916   -1.975511    0.818139
H      4.756553   -2.898174    0.410030
H      4.140988   -0.988954    1.725414
H      5.671708    0.716774    1.654173
H      4.648329    2.677099    0.956175
H      2.133705    2.280670    0.805878
H      1.815030   -0.458432    1.286686
H      0.968435   -1.654592   -0.617106
H      0.251068   -0.649859   -1.895644
H     -0.562225   -0.606477    1.064511
H     -1.697576   -2.050314   -1.377037
H     -3.307405   -1.111726    1.060178
H     -4.124579   -0.444627   -1.802895
H     -1.927581    0.248801   -2.180421
H     -3.253363    1.995485   -2.417882
H     -4.185443    1.358421    0.632888
H     -6.477439    2.313291    0.911425
H     -7.899092    1.376429    0.317342
H     -6.970655    0.787351    1.753981
H     -4.009815   -2.709213   -1.210267
H     -1.539896   -2.683903    1.411736
H      3.043404    2.260206    2.799809
H      3.697417    2.979032   -0.994579
H      5.856379    0.414353   -1.182616
