47

C     -4.145184    2.101637    0.860353
C     -3.878682    1.140457   -0.312243
C     -4.218948   -0.345635    0.021117
C     -3.396540   -1.263552   -0.895691
C     -1.880826   -0.988867   -0.718903
C     -1.610857    0.474623   -0.261886
O     -2.568547    1.342397   -0.839995
O     -0.324486    0.896876   -0.686578
C      0.694407    0.529462    0.233853
C      0.958081    1.714987    1.185399
O      1.525884    1.260143    2.382212
C      1.939865    0.109842   -0.587129
C      3.119998   -0.406491    0.290538
C      4.122056   -1.274933   -0.518755
C      5.264975   -1.807203    0.369333
O      6.118744   -0.772034    0.777053
O      3.439819   -2.369198   -1.076735
O      3.779789    0.664417    0.922577
O      2.351013    1.174761   -1.409227
O     -1.191552   -1.295745   -1.906375
O     -3.690083   -2.607266   -0.614535
O     -3.940763   -0.634521    1.370556
O     -3.971127    3.431104    0.450831
H     -5.178112    1.951979    1.251361
H     -3.438752    1.898570    1.691679
H     -4.580914    1.435795   -1.123174
H     -5.305458   -0.508690   -0.176887
H     -3.700954   -1.036752   -1.944942
H     -1.491654   -1.661467    0.076663
H     -1.694213    0.540129    0.851292
H      0.402377   -0.359349    0.844670
H      1.622310    2.466711    0.703182
H     -0.004310    2.220760    1.421780
H      1.711910    2.069320    2.925953
H      1.588560   -0.730944   -1.231384
H      2.695471   -1.057169    1.086581
H      4.561285   -0.654176   -1.334778
H      5.850183   -2.576004   -0.185368
H      4.843632   -2.302162    1.270582
H      6.656747   -0.517356   -0.017215
H      3.989602   -2.696605   -1.836548
H      4.243745    1.193203    0.222231
H      2.800792    0.776475   -2.199410
H     -1.476801   -0.639477   -2.595590
H     -3.321512   -3.142334   -1.365313
H     -4.479632   -1.430793    1.615787
H     -4.791339    3.685075   -0.047538
