41

C     -2.533073   -0.451908    1.566136
C     -3.993968   -0.412496    1.073016
C     -4.099981    0.281682   -0.304468
C     -2.815258    0.034402   -1.120143
C     -1.564219    0.521849   -0.330355
O     -1.806347    0.654192    1.068680
O     -0.487780   -0.369042   -0.566469
C      0.743476    0.150511   -0.085237
C      1.729659    0.280903   -1.256528
C      3.128556    0.641914   -0.730693
C      3.544586   -0.353642    0.379660
O      2.588142   -0.362712    1.429682
C      1.316248   -0.803483    0.982640
O      1.386991   -2.128840    0.511784
C      4.904734    0.026416    0.990062
O      5.943431   -0.128087    0.060267
O      4.051691    0.589814   -1.788713
O      1.293188    1.283120   -2.138686
O     -2.882739    0.644125   -2.386084
O     -5.218245   -0.217936   -0.992164
O     -4.786042    0.268305    2.011792
H     -2.048724   -1.411005    1.268903
H     -2.508109   -0.424883    2.676394
H     -4.344514   -1.468595    0.989810
H     -4.213729    1.380683   -0.140005
H     -2.730710   -1.063739   -1.283332
H     -1.305330    1.535489   -0.715456
H      0.651251    1.157365    0.393634
H      1.795753   -0.694998   -1.795541
H      3.101754    1.669419   -0.293958
H      3.651755   -1.374886   -0.053890
H      0.635613   -0.768831    1.864510
H      0.472105   -2.509401    0.573677
H      4.883061    1.083011    1.333039
H      5.104079   -0.606967    1.884825
H      6.110230   -1.103427   -0.020848
H      3.972318    1.446566   -2.283985
H      0.575349    0.883984   -2.696548
H     -3.050664    1.612785   -2.246038
H     -5.463364    0.459100   -1.675621
H     -5.731175    0.049243    1.800397
