45

C      4.575754    0.857393   -0.514097
C      3.620222   -0.341748   -0.712363
C      2.170882    0.011155   -1.175100
C      1.132231   -0.185005   -0.040732
C      1.750931    0.220165    1.306425
C      3.060664   -0.576824    1.585352
O      3.603704   -1.196154    0.422352
O      2.818060   -1.576133    2.540279
O      0.822339    0.089768    2.357391
O     -0.022829    0.606042   -0.275065
C     -1.015986   -0.119455   -0.981856
C     -2.041273    0.861634   -1.627829
C     -3.470655    0.279510   -1.582253
C     -3.862135   -0.164631   -0.144843
C     -2.606471   -0.508069    0.697966
O     -1.617226   -1.088999   -0.128550
C     -2.938989   -1.493538    1.827939
O     -3.886771   -0.949777    2.707114
O     -4.572656    0.863556    0.498041
O     -3.604540   -0.780400   -2.499608
O     -2.017985    2.097053   -0.954680
O      2.090993    1.291671   -1.757086
O      4.881085    1.439726   -1.751809
H      5.516281    0.491565   -0.044478
H      4.126364    1.619123    0.158771
H      4.073452   -0.940263   -1.533885
H      1.896548   -0.713159   -1.973701
H      0.894375   -1.275296    0.032165
H      2.013307    1.298726    1.248170
H      3.812780    0.125670    2.014366
H      3.702290   -1.955994    2.784698
H      0.437242   -0.824428    2.314902
H     -0.553780   -0.676073   -1.830349
H     -1.750063    1.025224   -2.692928
H     -4.174872    1.072523   -1.917883
H     -4.513134   -1.068648   -0.220171
H     -2.207818    0.416518    1.180740
H     -3.344726   -2.435288    1.400182
H     -2.009919   -1.755379    2.383752
H     -3.408770   -0.277551    3.259714
H     -5.496472    0.846994    0.134264
H     -3.049982   -1.538917   -2.182137
H     -2.432661    2.765403   -1.560775
H      2.109585    1.963962   -1.028237
H      5.490626    2.198348   -1.557056
