44

C     -4.215765   -1.177274   -1.175323
C     -2.858577   -0.481845   -1.346978
C     -2.841521    0.980384   -0.812054
C     -2.735600    1.056164    0.734281
C     -2.097465   -0.212795    1.332436
C     -1.142500   -0.869756    0.308610
O     -1.832730   -1.338543   -0.842026
O     -0.130996    0.039691   -0.102230
C      1.066348   -0.079596    0.652876
C      2.112008   -0.854944   -0.184734
C      3.543778   -0.335767    0.112330
O      3.717832    1.043079   -0.205156
C      2.558682    1.857545   -0.047291
C      1.562055    1.342898    1.008229
O      2.188325    1.348091    2.266965
O      1.908843    2.001724   -1.283011
C      4.601749   -1.128906   -0.670215
O      4.716223   -2.430552   -0.164003
O      2.022385   -2.226113    0.109493
O     -1.412548    0.121398    2.512157
O     -3.975050    1.326338    1.343600
O     -3.956805    1.693508   -1.285200
H     -4.196362   -2.157072   -1.698204
H     -5.033688   -0.572159   -1.619358
H     -4.440676   -1.368781   -0.108293
H     -2.695493   -0.406769   -2.444651
H     -1.925247    1.452991   -1.239771
H     -2.070530    1.918615    0.965005
H     -2.897966   -0.948912    1.575919
H     -0.717335   -1.783261    0.784940
H      0.918227   -0.615750    1.620955
H      1.916003   -0.690030   -1.271937
H      3.760297   -0.473536    1.195630
H      2.897841    2.864014    0.288019
H      0.694632    2.045450    1.034949
H      1.466018    1.325812    2.948134
H      2.552083    2.454442   -1.888475
H      4.331271   -1.159313   -1.749940
H      5.585313   -0.616510   -0.571587
H      5.395736   -2.886002   -0.725899
H      1.281580   -2.591558   -0.441019
H     -1.251727   -0.727130    3.002145
H     -4.604252    0.604029    1.089026
H     -3.764396    2.656702   -1.138791
