44

C      2.662652   -0.758397   -1.981739
C      2.733777   -0.987065   -0.459692
C      3.899290   -0.253791    0.251911
C      3.588474    1.238674    0.503842
C      2.167787    1.412351    1.068785
C      1.143385    0.620634    0.231056
O      1.485234   -0.758525    0.179519
O     -0.128345    0.764475    0.833418
C     -1.160737    0.243158    0.008047
C     -1.907294   -0.872719    0.763998
C     -3.150702   -1.294254   -0.055057
O     -4.020304   -0.189919   -0.249367
C     -3.395214    0.798745   -1.054844
C     -2.143363    1.375544   -0.350529
O     -1.516923    2.345259   -1.153392
O     -4.310786    1.828533   -1.321462
C     -3.921369   -2.442301    0.618411
O     -4.502804   -2.033220    1.828266
O     -2.299824   -0.416781    2.035446
O      2.114919    1.052681    2.429504
O      3.708162    1.980410   -0.684424
O      5.087852   -0.401001   -0.483226
H      2.651031    0.316491   -2.246694
H      1.745456   -1.234378   -2.388485
H      3.540812   -1.224177   -2.477165
H      2.942576   -2.073169   -0.340729
H      4.033823   -0.747269    1.243101
H      4.309454    1.634358    1.258461
H      1.901401    2.490728    1.006041
H      1.113980    1.072769   -0.787534
H     -0.787122   -0.203945   -0.947887
H     -1.229980   -1.754311    0.862849
H     -2.809797   -1.694079   -1.039797
H     -3.102830    0.360616   -2.036986
H     -2.467996    1.871888    0.590890
H     -1.237492    1.903498   -1.997873
H     -4.673429    2.131352   -0.447915
H     -3.228562   -3.286638    0.822299
H     -4.706029   -2.822115   -0.075689
H     -5.335778   -1.545331    1.596117
H     -1.524683   -0.546615    2.642254
H      2.224788    0.069263    2.496457
H      4.673487    2.174137   -0.811423
H      5.833023   -0.145565    0.121237
