41

C      2.813598   -0.260336    1.824713
C      3.945979    0.246251    0.910157
C      3.545329    0.106765   -0.580061
C      2.027766    0.298829   -0.758610
C      1.251859   -0.713320    0.140244
O      2.056273   -1.264481    1.176960
O      0.118873   -0.084823    0.724170
C     -1.073574   -0.323322   -0.009334
C     -2.015559    0.899552    0.138501
O     -3.233720    0.774919   -0.592416
C     -3.720629   -0.553256   -0.748295
C     -3.322592   -1.513185    0.395526
C     -1.781042   -1.583561    0.551671
O     -1.271816   -2.750805   -0.045241
O     -3.913053   -1.061302    1.588409
O     -3.294542   -1.053635   -1.989589
C     -1.316617    2.186958   -0.318030
O     -2.182611    3.276928   -0.160185
O      1.693337    0.108627   -2.109920
O      4.283543    0.978492   -1.402516
O      4.227181    1.583939    1.237979
H      2.158365    0.579915    2.153219
H      3.257830   -0.690573    2.747267
H      4.848133   -0.386334    1.090169
H      3.789321   -0.931400   -0.899749
H      1.777741    1.340897   -0.444691
H      0.970742   -1.584627   -0.495666
H     -0.880630   -0.443831   -1.101537
H     -2.264136    1.027305    1.216384
H     -4.833147   -0.487736   -0.757709
H     -3.725056   -2.526505    0.156935
H     -1.549940   -1.653221    1.638140
H     -1.492161   -2.717221   -1.012315
H     -3.907267   -1.826996    2.220717
H     -3.876795   -1.828592   -2.205132
H     -0.401626    2.360454    0.290691
H     -1.026411    2.093327   -1.388580
H     -1.685661    4.072895   -0.483517
H      0.884769    0.655112   -2.288288
H      3.941533    1.899333   -1.258670
H      5.176410    1.748568    0.997567
