46

C     -2.740462   -2.161272   -1.532472
C     -2.435478   -0.913575   -0.702866
C     -3.736467   -0.207681   -0.253044
C     -3.379747    1.022630    0.605619
C     -2.379715    0.651855    1.721556
C     -1.195455   -0.152058    1.146043
O     -1.640770   -1.286603    0.413213
O     -0.369312    0.684839    0.344191
C      0.975761    0.223498    0.316258
C      1.753822    0.908330    1.486005
C      2.748927   -0.054573    2.163310
O      3.433872    0.589439    3.203769
O      2.403185    2.077043    1.051000
C      1.538869    0.504737   -1.113634
C      2.958222   -0.081885   -1.372669
C      3.285859   -0.137129   -2.879767
O      4.594737   -0.595716   -3.087842
O      3.920611    0.720283   -0.737700
O      0.627745    0.011554   -2.066522
O     -1.893845    1.814716    2.341642
O     -4.536366    1.630952    1.126373
O     -4.603464   -1.085267    0.427964
H     -3.370620   -1.898113   -2.408754
H     -3.267681   -2.922606   -0.919204
H     -1.791366   -2.604005   -1.902673
H     -1.873938   -0.224301   -1.371806
H     -4.269926    0.154312   -1.159414
H     -2.886769    1.765998   -0.060196
H     -2.885604    0.010901    2.481438
H     -0.638055   -0.529471    2.035863
H      1.018091   -0.886406    0.445150
H      1.011955    1.187709    2.271714
H      3.492074   -0.431760    1.436602
H      2.204238   -0.940759    2.562748
H      2.793746    0.670826    3.958364
H      2.536986    2.654922    1.847270
H      1.586379    1.605163   -1.265689
H      2.992800   -1.121134   -0.968948
H      3.196434    0.881336   -3.314809
H      2.572579   -0.801655   -3.417500
H      4.586936   -1.570751   -2.900513
H      4.726185    0.156554   -0.599000
H      0.568819   -0.972370   -1.941230
H     -2.606313    2.133250    2.955256
H     -4.926275    1.018413    1.803087
H     -4.101206   -1.500170    1.175644
