41

C     -2.422487    1.130359   -1.948265
C     -3.536179    1.654470   -1.029237
C     -3.172372    1.356835    0.431328
C     -2.822729   -0.132479    0.595012
C     -1.772141   -0.558682   -0.454088
O     -2.216697   -0.260793   -1.772174
O     -0.520266    0.054415   -0.174185
C      0.542756   -0.596650   -0.859144
C      1.657505    0.426738   -1.183571
C      2.721808    0.428370   -0.080985
C      3.343287   -0.993096    0.018949
O      2.449928   -2.057066   -0.310811
C      1.091312   -1.780432   -0.010415
O      0.934549   -1.545647    1.369074
C      4.003606   -1.239085    1.387299
O      4.534493   -2.535276    1.451556
O      3.718014    1.369486   -0.392238
O      1.109752    1.712904   -1.333914
O     -2.333008   -0.359605    1.891327
O     -4.253090    1.698426    1.261120
O     -4.757872    1.040891   -1.354884
H     -1.483568    1.702184   -1.785747
H     -2.716147    1.308362   -3.004283
H     -3.623427    2.759267   -1.153231
H     -2.282883    1.976202    0.700215
H     -3.751101   -0.731171    0.434576
H     -1.687780   -1.666236   -0.369056
H      0.206894   -1.000466   -1.845254
H      2.144889    0.115620   -2.140290
H      2.225585    0.708745    0.879236
H      4.158716   -1.038615   -0.736953
H      0.514329   -2.692393   -0.291689
H      0.038136   -1.884023    1.626777
H      3.261990   -1.121973    2.203406
H      4.808760   -0.490545    1.565035
H      5.364057   -2.530062    0.906042
H      4.172760    1.600432    0.459138
H      1.732199    2.230645   -1.908541
H     -2.411305   -1.334892    2.059829
H     -3.890155    1.801773    2.179418
H     -5.082118    1.473064   -2.187866
