44

C     -3.810392    2.095841    0.453498
C     -3.084621    0.753861    0.575300
C     -3.839058   -0.402262   -0.134214
C     -2.862434   -1.548663   -0.523941
C     -1.624905   -1.581686    0.395529
C     -0.943338   -0.179250    0.487215
O     -1.783585    0.879602    0.038491
O      0.219920   -0.203623   -0.319863
C      1.115133    0.848203    0.017673
C      2.221141    0.344828    1.002443
O      3.487213    0.939304    0.741717
C      4.016590    0.644602   -0.550848
C      2.960262    0.602413   -1.684886
C      1.738469    1.427856   -1.269388
O      0.788613    1.520504   -2.304919
O      3.498280    1.125078   -2.872246
O      4.740334   -0.557204   -0.522629
C      2.321384   -1.190691    1.141890
O      3.375294   -1.521359    2.003822
O     -2.022331   -2.009862    1.674176
O     -2.469798   -1.470538   -1.874899
O     -4.521933    0.062065   -1.273163
H     -3.822302    2.442591   -0.601886
H     -3.286130    2.860433    1.065228
H     -4.854064    2.003249    0.822879
H     -3.033351    0.532167    1.668730
H     -4.583550   -0.800027    0.595698
H     -3.404290   -2.512882   -0.405174
H     -0.907874   -2.328183   -0.022875
H     -0.663334    0.004484    1.553719
H      0.587785    1.709981    0.497520
H      1.916852    0.702954    2.010750
H      4.725723    1.469617   -0.792058
H      2.631310   -0.448493   -1.862358
H      2.087785    2.462787   -1.051297
H      0.609776    0.604623   -2.644079
H      4.135635    0.446717   -3.218085
H      5.481899   -0.424563    0.123717
H      1.373014   -1.586317    1.567660
H      2.477711   -1.668161    0.150935
H      3.419302   -2.512863    2.018390
H     -1.200095   -2.303994    2.147087
H     -2.034162   -0.591495   -2.020873
H     -5.177877   -0.641645   -1.519214
