47

C     -3.506169   -0.903249   -2.947257
C     -3.082883   -0.724895   -1.479422
C     -4.233433   -0.136781   -0.625932
C     -3.736967    0.111254    0.814034
C     -2.406592    0.899700    0.802619
C     -1.409223    0.216392   -0.149920
O     -1.962930    0.144976   -1.453783
O     -0.230911    0.999156   -0.195754
C      0.862176    0.253275   -0.702672
C      1.722494   -0.297822    0.458643
C      2.442104    0.808239    1.286316
C      3.766006    1.275449    0.642467
C      4.593446    0.083958    0.111899
C      3.688937   -0.837172   -0.735598
O      2.605586   -1.329207    0.034388
O      4.426687   -1.934341   -1.206628
N      5.200473   -0.660748    1.219785
O      3.482235    2.164978   -0.408083
O      2.664115    0.384458    2.610741
N     -1.830570    0.995056    2.147169
O     -4.714524    0.781650    1.571127
O     -5.316020   -1.031600   -0.600030
O     -4.493370   -1.890990   -3.077221
H     -3.901691    0.055455   -3.345894
H     -2.618064   -1.175623   -3.562547
H     -2.799563   -1.731354   -1.089578
H     -4.547165    0.833109   -1.081208
H     -3.558541   -0.878626    1.290957
H     -2.596205    1.929644    0.423164
H     -1.187464   -0.805993    0.248044
H      1.460313    0.937580   -1.335178
H      0.551060   -0.584327   -1.371836
H      1.004539   -0.784427    1.153948
H      1.768809    1.690685    1.355796
H      4.354359    1.822063    1.417308
H      5.408594    0.478867   -0.537421
H      3.313402   -0.277725   -1.622791
H      5.039860   -1.591977   -1.909031
H      5.816806   -0.009432    1.758335
H      5.840473   -1.387014    0.824337
H      4.318428    2.665666   -0.598293
H      3.051522   -0.527999    2.585701
H     -1.738031    0.037002    2.557531
H     -2.484598    1.537066    2.757100
H     -4.871234    1.665394    1.146277
H     -6.119789   -0.503856   -0.353049
H     -4.036489   -2.765915   -2.970149
