44

C     -2.410028   -1.295841    2.092766
C     -2.201504   -0.472439    0.821265
C     -3.439322   -0.547862   -0.105253
C     -3.220410    0.334528   -1.348187
C     -2.745562    1.744829   -0.942100
C     -1.569464    1.655555    0.050173
O     -1.916458    0.869440    1.184561
O     -0.415672    1.152195   -0.605949
C      0.733629    1.360797    0.189460
C      1.958777    0.737438   -0.498455
C      1.827119   -0.808943   -0.668444
C      3.226517   -1.444406   -0.691877
C      4.014313   -1.086710    0.591054
C      3.522424    0.247515    1.195621
O      3.152761    1.146868    0.165005
O      4.538160    0.823329    1.972494
O      5.385313   -1.003482    0.292613
O      3.124163   -2.841784   -0.798090
O      1.163519   -1.107426   -1.871541
O     -2.337066    2.463856   -2.077995
O     -4.416031    0.413560   -2.081741
O     -4.626653   -0.197657    0.568267
H     -1.480343   -1.284599    2.700620
H     -3.234968   -0.873535    2.704933
H     -2.648813   -2.349885    1.835493
H     -1.331678   -0.928953    0.297479
H     -3.550224   -1.598897   -0.452134
H     -2.427383   -0.147122   -1.970176
H     -3.579778    2.286481   -0.436523
H     -1.386180    2.698070    0.401127
H      0.609253    0.908535    1.198557
H      0.922071    2.452119    0.307113
H      2.012728    1.178262   -1.518748
H      1.271590   -1.246244    0.196863
H      3.778780   -1.037347   -1.573933
H      3.853108   -1.875867    1.363692
H      2.655080    0.038047    1.866667
H      4.139563    1.621295    2.408404
H      5.706949   -1.934274    0.165291
H      2.966909   -3.049654   -1.756090
H      0.193227   -1.148370   -1.669469
H     -3.156562    2.839144   -2.494138
H     -4.167317    0.619347   -3.020544
H     -4.494541    0.690089    0.990006
