50

C      5.171961    1.820762    1.844462
C      4.529916    1.257392    0.618988
O      4.883248    1.675487   -0.516867
N      3.515790    0.250438    0.743966
C      2.770346   -0.272827   -0.406545
C      1.437786    0.490854   -0.573645
C      0.279012   -0.422978   -1.038512
C      0.762909   -1.654961   -1.867069
O      1.919107   -2.347345   -1.394658
C      2.546846   -1.785829   -0.253780
O      1.823902   -2.086065    0.912080
C      0.954409   -1.319481   -3.355080
O      2.036512   -0.449179   -3.534177
O     -0.416886   -0.899190    0.108589
C     -1.766824   -0.472936    0.135550
C     -2.490119   -1.240782    1.282925
C     -2.925134   -0.309044    2.426681
C     -3.676764    0.935178    1.903083
C     -3.099366    1.442851    0.544882
O     -1.796111    0.941719    0.300544
C     -3.998854    1.280639   -0.663500
O     -4.651405    0.218838   -0.851702
O     -4.063547    2.301285   -1.607441
O     -5.050893    0.650348    1.811669
O     -1.822022    0.054606    3.224616
O     -3.621635   -1.908184    0.783370
O      1.604723    1.542066   -1.492189
H      5.951140    2.564435    1.572391
H      5.643914    1.001854    2.426395
H      4.402137    2.317955    2.470876
H      3.201393   -0.011271    1.706032
H      3.380981   -0.144532   -1.327839
H      1.137597    0.927395    0.409943
H     -0.379983    0.191376   -1.701762
H     -0.073310   -2.388705   -1.842469
H      3.553888   -2.253868   -0.167880
H      1.809953   -3.075738    0.986786
H      0.025133   -0.862402   -3.764702
H      1.145821   -2.262414   -3.915140
H      2.071167   -0.248051   -4.505019
H     -2.245660   -0.750094   -0.833576
H     -1.801658   -2.001606    1.723675
H     -3.612810   -0.879687    3.090056
H     -3.539225    1.737676    2.667723
H     -2.982819    2.541982    0.666061
H     -4.641489    2.209049   -2.434200
H     -5.522652    1.523579    1.772871
H     -1.203323    0.600068    2.675149
H     -3.289718   -2.686716    0.263620
H      2.112618    2.256054   -1.025230
