41

C      2.418978    1.624893   -0.685211
C      1.454911    0.740142    0.128716
C      2.213948   -0.160542    1.142664
C      3.675072   -0.407382    0.718899
C      4.398326    0.933148    0.387831
O      3.534838    2.024681    0.084025
O      5.389140    0.776092   -0.597562
O      3.762279   -1.340285   -0.333167
O      2.210918    0.446346    2.410753
O      0.715925   -0.064915   -0.777556
C     -0.609351   -0.269793   -0.322872
C     -1.198591   -1.465315   -1.084111
C     -2.654885   -1.705207   -0.640803
C     -3.470092   -0.400157   -0.707834
C     -2.703442    0.804958   -0.093391
O     -1.368614    0.903975   -0.572757
C     -2.781121    0.882633    1.448465
O     -4.096213    1.137580    1.864891
O     -3.771315   -0.125151   -2.053239
O     -2.688606   -2.219546    0.666236
O     -1.143275   -1.214624   -2.465833
H      1.873486    2.538233   -1.005178
H      2.735853    1.127940   -1.627063
H      0.794829    1.442834    0.695676
H      1.712489   -1.154346    1.220041
H      4.199429   -0.871181    1.584218
H      4.932544    1.229650    1.316153
H      4.938526    0.716495   -1.477483
H      3.203627   -1.022568   -1.085850
H      1.305482    0.306818    2.794394
H     -0.598735   -0.525083    0.762405
H     -0.586544   -2.367485   -0.846972
H     -3.128332   -2.447225   -1.326835
H     -4.424626   -0.560045   -0.152471
H     -3.218973    1.721943   -0.454851
H     -2.450942   -0.062833    1.919723
H     -2.102670    1.686549    1.815593
H     -4.260901    2.105308    1.716275
H     -4.550893    0.490015   -2.056515
H     -2.398816   -3.167684    0.611379
H     -1.263664   -2.088865   -2.920785
