46

C      3.105173    2.231141    0.114546
C      3.256546    0.725626   -0.132589
C      2.170038    0.215307   -1.141365
C      1.152179   -0.739883   -0.476168
C      1.841403   -1.817417    0.408818
C      3.216911   -1.339338    0.943146
O      3.189368    0.062027    1.121142
O      3.474109   -1.933959    2.188077
N      1.953168   -3.088341   -0.314525
O      0.294024    0.048554    0.337540
C     -1.042716   -0.417118    0.294695
C     -1.799193    0.164482    1.529657
C     -2.753234    1.292487    1.105832
C     -3.724578    0.798838    0.004928
C     -3.022096   -0.230170   -0.933023
O     -1.623375   -0.012490   -0.940633
C     -3.544539   -0.214621   -2.376724
O     -3.141343    0.955626   -3.034435
O     -4.224068    1.907149   -0.704560
O     -1.988513    2.378822    0.641096
O     -2.538635   -0.845806    2.168785
O      2.756684   -0.382627   -2.272554
O      4.112815    2.673549    0.981426
H      2.107154    2.435968    0.564395
H      3.185419    2.777453   -0.852323
H      4.273387    0.581576   -0.566584
H      1.584310    1.078535   -1.530212
H      0.593207   -1.239582   -1.305932
H      1.180547   -1.998209    1.287551
H      4.040681   -1.621621    0.241464
H      3.770214   -2.864865    2.010656
H      2.672252   -3.013224   -1.068015
H      2.276253   -3.827791    0.350626
H     -1.061717   -1.532962    0.362621
H     -1.070625    0.590762    2.260291
H     -3.344494    1.605768    1.999658
H     -4.567236    0.272495    0.515963
H     -3.245317   -1.255000   -0.548576
H     -3.132183   -1.097116   -2.915588
H     -4.654805   -0.295261   -2.377897
H     -3.523692    0.903024   -3.948595
H     -5.157174    1.693353   -0.967787
H     -2.521674    3.201047    0.800879
H     -1.886794   -1.407298    2.664771
H      3.405905   -1.063590   -1.964094
H      3.956256    3.644702    1.112638
