40

C      2.397585    1.290715   -0.684778
C      1.473498    0.169379   -0.157978
C      2.185571   -1.206142   -0.202896
C      3.714538   -1.030157   -0.115673
C      4.194880   -0.121619   -1.285767
O      3.229166    0.828600   -1.734970
O      5.406623    0.515636   -0.971659
O      4.379275   -2.270610   -0.133456
O      1.708683   -2.055818    0.811818
O      0.308617    0.103555   -0.969559
C     -0.838414    0.540976   -0.265818
C     -1.993397    0.710344   -1.271627
C     -3.277333    1.117740   -0.525457
C     -3.542560    0.151394    0.643562
C     -2.267381    0.012880    1.501151
O     -1.183463   -0.435457    0.705946
C     -2.493246   -0.982379    2.600908
O     -2.806557   -0.587195    3.756102
O     -2.399729   -2.346188    2.336711
O     -4.592191    0.643081    1.438578
O     -4.373684    1.096319   -1.404353
O     -1.669243    1.702178   -2.212538
H      3.007830    1.712241    0.145725
H      1.779015    2.132242   -1.064262
H      1.257966    0.413746    0.912194
H      1.958022   -1.691498   -1.179004
H      3.951963   -0.534744    0.852106
H      4.397789   -0.780621   -2.157094
H      5.220647    1.173640   -0.253358
H      4.094105   -2.758548   -0.950506
H      1.966051   -1.657084    1.684681
H     -0.636845    1.535262    0.208160
H     -2.175115   -0.263736   -1.786349
H     -3.149412    2.146559   -0.107323
H     -3.808738   -0.854176    0.236610
H     -2.021958    0.993853    1.973529
H     -2.568961   -3.030411    3.064866
H     -5.437280    0.430007    0.963040
H     -4.308957    1.911511   -1.967607
H     -1.087358    1.274527   -2.894600
