45

C     -3.156486    1.247857    1.934844
C     -2.987952    1.413502    0.404968
C     -3.997045    0.627223   -0.493738
C     -3.264874   -0.381469   -1.398291
C     -2.186766   -1.114049   -0.587313
C     -1.184979   -0.105302    0.053754
O     -1.639712    1.243317   -0.012241
O      0.058343   -0.185200   -0.622347
C      1.117289    0.350880    0.157660
C      2.161552    0.971102   -0.799134
C      3.080810   -0.113196   -1.388338
C      3.685399   -1.012474   -0.260018
O      3.169980   -0.689177    1.022748
C      1.754781   -0.776428    1.021183
O      1.283828   -0.700740    2.341302
C      5.216677   -0.905177   -0.210912
O      5.615591    0.364295    0.236387
O      2.340688   -0.901754   -2.285683
O      2.946556    1.914342   -0.112416
O     -1.530162   -2.085510   -1.367832
O     -4.168242   -1.311664   -1.938584
O     -4.972448   -0.036766    0.272206
O     -3.171727   -0.100593    2.314575
H     -4.109898    1.728150    2.250610
H     -2.321382    1.773705    2.449895
H     -3.211041    2.488662    0.225733
H     -4.506855    1.348941   -1.176932
H     -2.763758    0.174083   -2.227061
H     -2.701042   -1.659738    0.234496
H     -1.048367   -0.404189    1.118127
H      0.762430    1.179620    0.818521
H      1.635502    1.481534   -1.641203
H      3.882412    0.409108   -1.961835
H      3.463032   -2.083220   -0.479869
H      1.439137   -1.771285    0.627765
H      1.690886    0.107149    2.751172
H      5.605232   -1.662446    0.503123
H      5.656306   -1.140368   -1.208602
H      5.757900    0.925974   -0.569142
H      2.998358   -1.411144   -2.827821
H      2.401111    2.740022   -0.030345
H     -1.213748   -1.646473   -2.200533
H     -4.691571   -0.830184   -2.631462
H     -5.638446    0.647576    0.544510
H     -3.257301   -0.108495    3.303086
