41

C      3.448711    0.339339   -1.468871
C      2.253906   -0.628286   -1.364622
C      1.718187   -0.708418    0.090813
C      2.863150   -0.507745    1.099004
C      3.646800    0.808047    0.801262
O      3.356964    1.346379   -0.482644
O      3.311007    1.763052    1.771776
O      3.730210   -1.612280    1.035118
O      0.753004    0.311491    0.305205
C     -0.563839   -0.123549    0.006654
C     -1.240192   -0.645672    1.302091
C     -2.764706   -0.348907    1.325857
C     -3.362849   -0.319748   -0.094418
C     -2.516200    0.581153   -1.054584
O     -1.285037    0.992747   -0.477911
C     -3.297453    1.830867   -1.489428
O     -3.622067    2.635545   -0.387063
O     -3.421812   -1.630897   -0.595744
O     -2.998467    0.894205    1.939495
O     -0.991355   -2.018078    1.483035
O      2.653577   -1.899613   -1.807818
H      3.440538    0.820878   -2.469770
H      4.418191   -0.206852   -1.390048
H      1.445616   -0.246115   -2.031892
H      1.295110   -1.723382    0.283400
H      2.413109   -0.464197    2.119886
H      4.743402    0.611647    0.874426
H      3.916736    2.536700    1.629153
H      4.273895   -1.598128    1.865905
H     -0.558972   -0.923616   -0.778405
H     -0.780357   -0.121656    2.169473
H     -3.290707   -1.142213    1.909157
H     -4.406623    0.066187   -0.005367
H     -2.299661    0.020456   -1.993891
H     -2.699753    2.411228   -2.229432
H     -4.237127    1.522851   -1.996098
H     -2.804044    3.148379   -0.156357
H     -4.044944   -1.614436   -1.368788
H     -2.915592    0.753695    2.919041
H     -1.404404   -2.505005    0.724024
H      1.824048   -2.406053   -2.011621
