45

C      4.468177    1.871584   -0.040886
C      3.482172    0.779784   -0.495451
C      2.097085    0.848259    0.224666
C      1.441798   -0.545693    0.191565
C      2.364200   -1.581839    0.880767
C      3.860831   -1.180875    0.766272
O      4.109950   -0.500498   -0.452850
O      4.692296   -2.308675    0.870938
O      2.124034   -2.868923    0.365059
O      0.192709   -0.522328    0.864902
C     -0.881886   -0.240296   -0.015167
C     -1.533979   -1.539773   -0.484530
C     -2.991004   -1.176067   -0.531028
C     -3.088677   -0.127449    0.570081
O     -1.841937    0.525454    0.681344
C     -4.213352    0.897018    0.310890
C     -4.431844    1.789611    1.540893
O     -5.467156    2.705007    1.303667
O     -3.882452    1.709338   -0.789148
O     -3.807695   -2.281114   -0.244220
O     -1.078353   -1.915661   -1.758227
O      2.242738    1.281491    1.556101
O      3.906905    3.147505   -0.196839
H      4.736922    1.727839    1.026360
H      5.410325    1.794636   -0.630155
H      3.278016    0.975111   -1.571601
H      1.455991    1.572865   -0.331007
H      1.339044   -0.842322   -0.880175
H      2.119000   -1.610589    1.965776
H      4.122872   -0.520759    1.623821
H      4.724891   -2.741937   -0.021601
H      2.384545   -2.862824   -0.593189
H     -0.572880    0.369948   -0.898174
H     -1.370184   -2.354822    0.262623
H     -3.250621   -0.738957   -1.524182
H     -3.289513   -0.645347    1.536483
H     -5.164484    0.340802    0.125520
H     -3.503506    2.358746    1.761723
H     -4.670352    1.167871    2.434282
H     -6.317423    2.197146    1.374022
H     -4.406388    1.384018   -1.566935
H     -3.807881   -2.848583   -1.058730
H     -0.272806   -2.477708   -1.617591
H      1.361873    1.638350    1.843077
H      3.928002    3.350658   -1.168393
