41

C     -3.971044   -0.318420    1.644635
C     -4.190721   -0.779230    0.191406
C     -2.998239   -0.385464   -0.710300
C     -1.702938   -0.297752    0.113044
C     -1.906402    0.745113    1.258218
O     -3.255805    0.900719    1.691004
O     -1.070128    0.477082    2.355086
O     -0.644709    0.090407   -0.750786
C      0.633360   -0.167754   -0.191372
C      1.582610   -0.546560   -1.339099
C      2.989960   -0.893161   -0.802028
C      3.245141   -0.287726    0.598911
C      2.461241    1.041910    0.807437
O      1.073519    1.007741    0.472123
C      3.130977    2.207453    0.059646
O      2.522616    3.423527    0.403756
O      2.866174   -1.219482    1.581937
O      3.953409   -0.430384   -1.714847
O      1.051455   -1.640685   -2.042001
O     -2.859721   -1.336979   -1.735174
O     -5.373777   -0.208312   -0.305189
H     -4.953668   -0.173096    2.142101
H     -3.447796   -1.110498    2.225587
H     -4.297432   -1.889826    0.211551
H     -3.201943    0.620194   -1.152901
H     -1.532086   -1.316278    0.536470
H     -1.601187    1.734218    0.854371
H     -1.338210   -0.400194    2.730249
H      0.610565   -1.017756    0.530652
H      1.642945    0.334034   -2.022100
H      3.074842   -2.004101   -0.721976
H      4.338946   -0.094429    0.709622
H      2.527321    1.290181    1.889655
H      4.202844    2.266806    0.345394
H      3.085364    2.050807   -1.041249
H      1.703883    3.501993   -0.152334
H      3.301049   -0.941139    2.430209
H      4.791780   -0.929278   -1.529400
H      1.541242   -1.689897   -2.904328
H     -2.370003   -0.895636   -2.477569
H     -5.615434   -0.718146   -1.122303
