46

C     -2.661727    3.024625   -0.757170
C     -2.511632    1.504096   -0.582335
C     -3.804758    0.864933   -0.017249
C     -3.574779   -0.640261    0.212844
C     -2.285756   -0.877397    1.024523
C     -1.114692   -0.107349    0.373971
O     -1.430392    1.274308    0.306202
O      0.035395   -0.270889    1.183478
C      1.211943    0.020811    0.452488
C      2.353655    0.287423    1.456607
C      3.678424    0.505070    0.700515
C      3.918864   -0.643379   -0.295824
C      2.659634   -0.813806   -1.175434
O      1.528619   -1.094289   -0.368101
C      2.830399   -1.929768   -2.215278
O      2.861026   -3.186097   -1.594881
O      4.186284   -1.837194    0.398518
O      4.750541    0.578456    1.605283
O      2.063072    1.431208    2.218617
N     -2.004991   -2.314019    1.104184
O     -4.684956   -1.225177    0.848220
O     -4.868336    1.025557   -0.922420
O     -3.555516    3.332479   -1.793267
H     -3.032273    3.479864    0.186175
H     -1.666562    3.476925   -0.973332
H     -2.284418    1.073688   -1.586493
H     -4.042377    1.340947    0.965707
H     -3.458498   -1.128353   -0.781215
H     -2.434099   -0.484981    2.056486
H     -0.941880   -0.527062   -0.649526
H      1.072002    0.944185   -0.164963
H      2.466913   -0.599006    2.125749
H      3.615163    1.456534    0.119179
H      4.780882   -0.377400   -0.953027
H      2.499100    0.125322   -1.756898
H      3.768072   -1.766786   -2.793007
H      1.973290   -1.891556   -2.924584
H      2.978878   -3.849880   -2.323099
H      5.156407   -1.839212    0.609065
H      4.729997    1.487316    2.004284
H      1.433681    1.150248    2.933131
H     -1.710443   -2.666105    0.163854
H     -1.205616   -2.467193    1.760818
H     -4.787385   -0.793257    1.736535
H     -5.414880    1.789812   -0.601861
H     -3.076279    3.156606   -2.644796
