43

C      3.453200   -1.192218    0.770518
C      3.201331   -0.319625   -0.435361
C      2.078933    0.422354   -0.564860
C      0.961662    0.494132    0.461136
C      0.824107    1.925523    1.022604
C     -0.648960    2.331589    0.861511
C     -1.418938    1.014139    0.670784
C     -0.414121    0.195954   -0.161441
C     -0.850142   -1.292845   -0.350606
C     -2.400263   -1.369301   -0.600920
C     -3.024060   -0.042440   -1.085526
C     -2.747505    1.170958   -0.149877
O     -3.853547    1.370378    0.694484
C     -0.099987   -1.904704   -1.555269
O     -0.520515   -2.025973    0.806567
C     -1.688207    0.407377    2.084912
C      4.222639   -0.273147   -1.542449
H      2.658036   -1.963178    0.852060
H      3.469165   -0.570675    1.690597
H      4.428331   -1.716913    0.698202
H      1.965615    1.036015   -1.456173
H      1.137233   -0.198331    1.308589
H      1.475927    2.658313    0.496265
H      1.101093    1.933947    2.099796
H     -0.739236    2.974170   -0.042440
H     -1.007037    2.919269    1.735200
H     -0.404047    0.661146   -1.178599
H     -2.932344   -1.687835    0.318613
H     -2.638859   -2.157419   -1.348412
H     -4.119945   -0.179688   -1.214538
H     -2.615078    0.177537   -2.096563
H     -2.663701    2.054936   -0.825053
H     -3.781763    2.296858    1.044655
H     -0.292067   -1.320442   -2.480651
H     -0.430808   -2.950857   -1.730264
H      0.991568   -1.933964   -1.365272
H     -0.831513   -2.960271    0.675272
H     -2.239954    1.134142    2.718564
H     -0.747391    0.162372    2.618518
H     -2.303663   -0.508594    2.045886
H      4.589048    0.767371   -1.671386
H      5.095052   -0.924221   -1.326394
H      3.760712   -0.615838   -2.492681
