46

C      6.901547   -1.813534    0.064617
C      5.415674   -1.755698    0.398401
C      5.043213   -0.361517    0.933013
C      4.334175    0.559901   -0.055238
C      3.562483   -0.024311    1.125053
C      2.515323   -1.096846    0.776721
C      1.131430   -0.523603    0.880345
C      0.686794    0.393956    0.004632
C     -0.702839    0.987901    0.078043
C     -0.889135    1.757906    1.394643
C     -1.775424   -0.109345   -0.125328
C     -3.202533    0.453215   -0.350496
C     -4.248399   -0.685632   -0.525602
C     -5.710902   -0.236861   -0.271784
C     -6.171999    0.991243   -1.062285
C     -4.093693   -1.433990   -1.828684
O     -4.481427   -0.933743   -2.917111
O     -3.487775   -2.684440   -1.835107
O     -3.233229    1.355941   -1.431254
H      7.147103   -1.066576   -0.720290
H      7.159942   -2.825450   -0.312704
H      7.509578   -1.606725    0.971190
H      5.195772   -2.510013    1.183637
H      4.846082   -2.027839   -0.515085
H      5.722029    0.145825    1.652290
H      4.592004    1.633127    0.064047
H      4.104643    0.124695   -1.051343
H      3.361214    0.682869    1.958918
H      2.648470   -1.519814   -0.241597
H      2.609438   -1.927575    1.507779
H      0.481867   -0.881054    1.673840
H      1.344943    0.732103   -0.791596
H     -0.781401    1.721131   -0.754081
H     -0.031021    2.444167    1.561103
H     -0.961724    1.061448    2.256885
H     -1.807624    2.379001    1.355665
H     -1.491413   -0.726650   -1.006266
H     -1.786020   -0.783714    0.758904
H     -3.487467    1.013464    0.564952
H     -4.045239   -1.428984    0.278153
H     -5.830707   -0.009133    0.810258
H     -6.395998   -1.083653   -0.497219
H     -6.023163    0.855449   -2.151458
H     -5.634904    1.900494   -0.721646
H     -7.255502    1.153893   -0.881895
H     -2.784186    0.926755   -2.205016
