16

C     -1.986583    0.908563   -0.105375
C     -2.274979   -0.460269   -0.071523
C     -1.237707   -1.396133   -0.001388
C      0.092067   -0.961958    0.035008
C      0.386001    0.416608    0.001046
C     -0.659247    1.349705   -0.069300
C      1.723693    0.819999    0.038758
C      2.722888   -0.150311    0.108574
N      2.384092   -1.466320    0.138777
N      1.109438   -1.860589    0.103169
H     -2.793035    1.628407   -0.159648
H     -3.303594   -0.795857   -0.099701
H     -1.469051   -2.453811    0.024442
H     -0.450865    2.412567   -0.096179
H      1.992363    1.869276    0.014629
H      3.764519    0.140124    0.138712
