39

C     -4.464681   -0.420464    2.225922
C     -3.455046   -0.787984    1.133039
C     -3.917677   -0.338048   -0.294463
C     -3.127104    0.897840   -0.762476
C     -1.601570    0.621734   -0.684666
C     -1.253163   -0.369396    0.459855
O     -2.198887   -0.231908    1.502369
O      0.036276   -0.060852    0.994331
C      1.274529   -0.340842    0.392152
C      2.416658    0.258159    0.937928
C      3.683853    0.022092    0.384617
C      4.827254    0.628456    0.928357
C      6.084334    0.385463    0.367189
C      6.209803   -0.461872   -0.737014
C      5.079066   -1.072157   -1.287532
C      3.811233   -0.835821   -0.733401
C      2.669611   -1.443098   -1.273239
C      1.411452   -1.201355   -0.714735
O     -1.117742    0.153702   -1.918852
O     -3.462616    1.995979    0.048759
O     -5.299769   -0.080498   -0.340257
H     -5.428797   -0.946906    2.060501
H     -4.639654    0.676349    2.240173
H     -4.072949   -0.729030    3.218605
H     -3.371486   -1.899085    1.143888
H     -3.690178   -1.176016   -0.995419
H     -3.412498    1.120611   -1.818179
H     -1.088640    1.587579   -0.480338
H     -1.255005   -1.424468    0.101217
H      2.309587    0.914347    1.793987
H      4.748897    1.288258    1.784244
H      6.963496    0.855025    0.789219
H      7.185792   -0.646343   -1.167059
H      5.194977   -1.726666   -2.143228
H      2.750146   -2.108292   -2.124897
H      0.559883   -1.702251   -1.148677
H     -1.602769   -0.685046   -2.134782
H     -3.196467    2.813045   -0.448688
H     -5.560145   -0.069487   -1.298452
