47

C     -4.713382   -3.655519   -1.282054
C     -4.506001   -2.144074   -1.445807
C     -5.620599   -1.383101   -0.711989
C     -3.102683   -1.744949   -0.937295
C     -2.732164   -0.295035   -1.287542
C     -1.274213    0.004206   -0.919408
C     -0.912450    1.459724   -1.239694
C      0.552017    1.750659   -0.892293
C      0.909150    3.213880   -1.186879
C      2.395143    3.525417   -0.952132
C      2.750914    3.540182    0.513749
C      3.182681    2.499922    1.247622
C      3.477168    1.132168    0.764818
O      3.693378    0.900304   -0.454115
N      3.556458    0.060374    1.712260
C      3.768419   -1.319602    1.285949
C      4.623164   -2.135708    2.240413
C      5.215594   -1.623261    0.936693
H     -4.648920   -3.946143   -0.211384
H     -5.708782   -3.953036   -1.675448
H     -3.941076   -4.214004   -1.853053
H     -4.577118   -1.910591   -2.531152
H     -5.533165   -1.520952    0.387040
H     -6.616700   -1.750824   -1.038634
H     -5.576611   -0.300071   -0.947993
H     -3.045827   -1.887231    0.164387
H     -2.350485   -2.419387   -1.403408
H     -3.391099    0.404249   -0.730602
H     -2.875239   -0.128163   -2.377470
H     -0.603778   -0.675372   -1.490332
H     -1.123293   -0.181728    0.166859
H     -1.571555    2.139475   -0.655559
H     -1.078431    1.650703   -2.323055
H      1.207342    1.082803   -1.492807
H      0.712990    1.539947    0.186615
H      0.284158    3.887165   -0.559167
H      0.675709    3.433103   -2.252105
H      3.046876    2.865355   -1.554794
H      2.582590    4.549433   -1.341319
H      2.579391    4.474370    1.035947
H      3.307715    2.671748    2.309933
H      3.337048    0.247671    2.716609
H      2.983709   -1.833550    0.691104
H      4.988037   -1.599595    3.142748
H      4.398346   -3.223035    2.239223
H      5.346393   -2.407132    0.161205
H      5.929184   -0.780796    1.065269
