15

C     -1.645976   -0.172929   -0.505156
C     -0.744757   -0.178046    0.738442
C      0.422410    0.823903    0.634567
C      1.375965    0.502933   -0.477613
O      1.208701    1.008570   -1.619717
O      2.433752   -0.372794   -0.253572
O     -0.280663   -1.474086    1.027066
H     -1.091218   -0.522181   -1.401366
H     -2.511396   -0.849432   -0.341570
H     -2.031170    0.851502   -0.694959
H     -1.374105    0.145442    1.595884
H      0.982289    0.825756    1.594565
H      0.018594    1.849869    0.489702
H      3.080064   -0.607605   -0.997381
H      0.157511   -1.830904    0.211108
