48

C     -6.532450    1.287797   -0.149564
C     -5.433754    0.355335   -0.676076
C     -5.040067    0.766923   -2.102865
C     -4.221896    0.370513    0.282843
C     -3.174812   -0.703431   -0.066563
C     -2.128603   -0.897324    1.043080
C     -1.163254    0.294602    1.158278
C     -0.129801    0.119205    2.285641
C      0.821851   -1.084621    2.126663
C      1.587626   -1.148013    0.792528
C      2.519171    0.057570    0.581454
C      3.288034   -0.008948   -0.751645
C      4.375278   -1.098761   -0.801910
C      5.431105   -0.915101    0.257180
C      6.403410    0.011987    0.253032
C      6.677041    1.000394   -0.815109
O      6.114871    0.933322   -1.938821
O      7.602142    2.015805   -0.590484
H     -6.164403    2.335076   -0.094551
H     -6.856119    0.967417    0.863764
H     -7.419559    1.253624   -0.817600
H     -5.855191   -0.673879   -0.711104
H     -4.546415    1.762443   -2.102668
H     -5.940972    0.815817   -2.751180
H     -4.351914    0.020171   -2.549743
H     -4.585588    0.184735    1.317705
H     -3.751793    1.377278    0.263298
H     -2.656915   -0.441184   -1.013914
H     -3.691849   -1.675799   -0.220521
H     -2.636782   -1.071746    2.016613
H     -1.550032   -1.812076    0.795456
H     -0.650695    0.469805    0.189059
H     -1.743518    1.212605    1.388161
H      0.468381    1.051183    2.369950
H     -0.670944    0.010175    3.250828
H      1.558573   -1.058460    2.959075
H      0.245795   -2.025889    2.252401
H      0.877447   -1.239218   -0.056008
H      2.192126   -2.078292    0.811045
H      3.228643    0.144342    1.432240
H      1.910453    0.985752    0.560310
H      2.568766   -0.180846   -1.581753
H      3.752838    0.982742   -0.932562
H      4.838908   -1.134144   -1.808992
H      3.904690   -2.093770   -0.664589
H      5.388525   -1.589249    1.104591
H      7.057778    0.039752    1.115684
H      8.083875    2.104383    0.296353
