42

C      3.972236    1.787544    2.147423
C      3.983668    1.137303    0.764608
C      2.618495    1.205372    0.057964
C      1.476276    0.466228    0.783279
C      1.722022   -1.036983    1.021002
C      2.007863   -1.862604   -0.250229
C      0.934912   -1.758450   -1.348928
C     -0.444266   -2.259058   -0.887409
C     -1.469171   -2.269122   -2.033303
C     -1.752685   -0.887190   -2.565156
C     -2.433843    0.078768   -1.927173
C     -3.102187   -0.039052   -0.615965
O     -3.341967   -1.162907   -0.096968
O     -3.503454    1.131976    0.032359
C     -4.148786    1.125368    1.301568
C     -4.438367    2.553901    1.733296
H      3.566310    2.819773    2.088653
H      3.363964    1.188802    2.856688
H      5.009565    1.837076    2.540367
H      4.331006    0.086270    0.846844
H      4.725040    1.675026    0.134751
H      2.728080    0.800895   -0.970237
H      2.327781    2.272538   -0.055265
H      0.540520    0.597943    0.199538
H      1.288312    0.953278    1.763403
H      2.571775   -1.163509    1.724428
H      0.838550   -1.461347    1.542977
H      2.116972   -2.929527    0.042693
H      2.985665   -1.552934   -0.676446
H      0.863463   -0.711269   -1.709746
H      1.270218   -2.376133   -2.210510
H     -0.818692   -1.623501   -0.060444
H     -0.343655   -3.295863   -0.499203
H     -1.068080   -2.891478   -2.862552
H     -2.410021   -2.759800   -1.709020
H     -1.344984   -0.649148   -3.540504
H     -2.495008    1.045020   -2.412728
H     -3.490209    0.640802    2.054884
H     -5.104101    0.560893    1.234295
H     -3.489683    3.126088    1.811596
H     -4.941471    2.551875    2.723175
H     -5.102066    3.047133    0.991882
