35

C      5.955413   -0.454029   -0.176902
C      5.419934   -1.709690    0.122214
C      4.041106   -1.864176    0.292812
C      3.186710   -0.757802    0.163512
C      1.801108   -0.900031    0.332132
C      0.947757    0.204349    0.187695
C      1.498306    1.467896   -0.091859
C      2.877116    1.620014   -0.260616
C      3.729500    0.514026   -0.139180
C      5.115840    0.656003   -0.307131
N     -0.465784    0.031776    0.387626
C     -1.473722    0.779885   -0.311103
O     -1.174796    1.443615   -1.341544
C     -2.915504    0.688987    0.128172
C     -3.674755   -0.315857   -0.761142
C     -5.126040   -0.544905   -0.311891
C     -5.194763   -1.245539    1.010358
O     -5.466685   -0.600351    2.056904
O     -4.927662   -2.606364    1.090740
N     -3.560842    2.005034    0.093018
H      7.023889   -0.340640   -0.307392
H      6.075169   -2.565361    0.222318
H      3.643773   -2.845225    0.524532
H      1.379772   -1.871186    0.565601
H      0.867154    2.344148   -0.155495
H      3.277322    2.603434   -0.477165
H      5.548510    1.622237   -0.537836
H     -0.781540   -0.742761    1.014641
H     -2.935744    0.323365    1.178111
H     -3.138070   -1.290999   -0.764327
H     -3.685824    0.057327   -1.809014
H     -5.638264   -1.176378   -1.069045
H     -5.673898    0.421077   -0.263815
H     -3.023690    2.659570    0.707700
H     -3.530797    2.388553   -0.880076
