23

C     -3.616891    0.268431   -0.636725
C     -3.550991   -1.045639   -0.162527
C     -2.322496   -1.596054    0.216012
C     -1.153585   -0.832067    0.121180
C     -1.217459    0.496725   -0.357916
C     -2.454781    1.040445   -0.735409
C     -0.037868    1.247433   -0.446451
C      1.181871    0.675593   -0.061650
C      2.380669    1.400920   -0.138341
C      3.584297    0.805267    0.252454
C      3.598296   -0.512673    0.720240
C      2.408691   -1.243353    0.800200
C      1.198779   -0.656702    0.411644
N      0.041491   -1.366773    0.489161
H     -4.570501    0.689276   -0.928299
H     -4.453596   -1.638321   -0.088335
H     -2.281461   -2.614539    0.582035
H     -2.522618    2.056763   -1.104682
H     -0.068854    2.268208   -0.811780
H      2.386635    2.422738   -0.498512
H      4.508107    1.366073    0.192700
H      4.532726   -0.968409    1.021270
H      2.429539   -2.263343    1.163732
