35

C      2.724337    2.644547   -1.019228
C      2.425785    1.722998   -2.026544
C      2.220939    0.377340   -1.707019
C      2.322008   -0.056919   -0.374529
C      2.610950    0.877833    0.634083
C      2.815568    2.222496    0.309948
C      2.029956   -1.488555   -0.021537
C      0.559449   -1.658735    0.205552
O     -0.171492   -2.016058   -0.756305
N     -0.008315   -1.350964    1.492051
C     -1.437812   -1.140717    1.772358
C     -1.839292    0.346724    1.597163
C     -1.491865    1.002988    0.245702
C     -2.408162    0.593057   -0.870639
O     -3.653485    0.740568   -0.745852
N     -1.878209    0.110361   -2.105170
C     -2.333983   -2.129689    1.065694
O     -1.975503   -3.333837    0.960337
O     -3.605919   -1.759202    0.640199
H      2.879887    3.686349   -1.267909
H      2.346961    2.052476   -3.054463
H      1.973876   -0.323779   -2.494618
H      2.668979    0.567171    1.669842
H      3.038842    2.938591    1.090174
H      2.589146   -1.785749    0.891971
H      2.366219   -2.161326   -0.840678
H      0.655539   -1.106013    2.261353
H     -1.587064   -1.358326    2.853206
H     -1.301585    0.923301    2.381999
H     -2.921338    0.477644    1.817356
H     -0.433981    0.816100   -0.021558
H     -1.587828    2.103882    0.362188
H     -0.848074    0.075707   -2.270134
H     -2.520898   -0.179651   -2.875148
H     -4.223638   -2.430613    0.200153
