34

C      4.539144   -2.210874   -0.988145
C      4.423443   -1.147149    0.097357
O      3.114739   -0.581385    0.108255
C      2.666219    0.343124   -0.843327
O      3.445121    0.774593   -1.736962
C      1.244449    0.827158   -0.798506
C      0.275361   -0.348195   -1.016537
C     -1.155296    0.104623   -0.912006
O     -1.997276   -0.343717   -1.735907
C     -1.549188    1.071083    0.153007
C     -2.802806    1.113697    0.685046
C     -3.919012    0.239794    0.168891
C     -4.845274   -0.326350    1.239191
C     -3.824365   -1.226661    0.570275
O     -3.126660    1.963963    1.748731
C     -0.467862    1.990129    0.592257
O     -0.719208    3.177075    0.934314
C      0.960290    1.528777    0.540141
H      4.400318   -1.757116   -1.991525
H      3.768105   -2.995028   -0.833354
H      5.544359   -2.680439   -0.945142
H      4.611192   -1.621998    1.083299
H      5.187686   -0.354240   -0.054894
H      1.092527    1.564239   -1.620584
H      0.448788   -1.137666   -0.252854
H      0.456175   -0.792656   -2.020300
H     -4.404787    0.462404   -0.804937
H     -5.886933   -0.512551    0.902369
H     -4.596959   -0.099137    2.298115
H     -4.256421   -1.931520   -0.170994
H     -2.963064   -1.496634    1.219153
H     -2.444417    2.416598    2.341275
H      1.138017    0.831818    1.388177
H      1.643595    2.399098    0.656123
