29

C      5.206479    0.556388    0.105993
C      3.849752    0.033755    0.448955
O      3.719949   -1.163576    0.822221
N      2.712336    0.905603    0.394149
C      1.358837    0.456304    0.714660
C      0.782574   -0.372209   -0.441940
C     -0.592294   -0.976531   -0.113206
C     -1.719839    0.069832   -0.138710
C     -3.094620   -0.536062    0.223033
C     -4.114590    0.557336    0.355139
O     -4.583354    0.850751    1.487646
O     -4.528537    1.264437   -0.770339
N     -3.557127   -1.501754   -0.777852
H      5.919551   -0.281603   -0.046033
H      5.153773    1.153496   -0.828351
H      5.573603    1.200740    0.931577
H      2.861734    1.915583    0.170512
H      1.374842   -0.138983    1.653550
H      0.722018    1.349018    0.887176
H      0.713581    0.256999   -1.356245
H      1.478514   -1.209082   -0.666167
H     -0.804461   -1.754623   -0.876826
H     -0.556928   -1.476996    0.879246
H     -1.490053    0.867173    0.599717
H     -1.766327    0.542421   -1.144807
H     -3.009557   -1.053578    1.205958
H     -5.209877    2.010109   -0.693911
H     -3.379402   -1.132521   -1.740668
H     -3.020577   -2.392428   -0.670566
