18

C      3.046843   -0.182583   -0.912118
C      2.053630   -0.043128    0.230323
O      0.731767   -0.242149   -0.259601
C     -0.395332   -0.174455    0.564486
O     -0.277283    0.087858    1.793388
C     -1.755636   -0.371209   -0.032265
C     -2.430344    0.982213   -0.259099
O     -2.533548   -1.161131    0.828360
H      4.078908   -0.027643   -0.532876
H      2.832544    0.574849   -1.695616
H      2.973999   -1.197906   -1.356298
H      2.141543    0.973648    0.671111
H      2.282834   -0.800768    1.010886
H     -1.638623   -0.886380   -1.013885
H     -2.572508    1.513186    0.706783
H     -3.423452    0.833853   -0.733660
H     -1.810655    1.612214   -0.932888
H     -3.304686   -1.490469    0.296375
