22

C     -3.400024   -0.031442   -0.015304
C     -2.159854    0.156666    0.853755
C     -0.882002    0.143001    0.006711
C      0.362905    0.322348    0.888366
C      1.656772    0.445476    0.068106
C      2.072308   -0.880406   -0.582387
C      3.402360   -0.738454   -1.252535
O      3.471550   -0.343746   -2.446257
O      4.569153   -0.994487   -0.543522
H     -3.476637    0.788417   -0.760987
H     -3.355718   -1.006770   -0.545263
H     -4.307757   -0.015856    0.624028
H     -2.119887   -0.661771    1.605408
H     -2.243105    1.125786    1.392466
H     -0.928670    0.965949   -0.740170
H     -0.821155   -0.825202   -0.534483
H      0.448085   -0.527047    1.601339
H      0.247438    1.252989    1.486387
H      1.535568    1.229075   -0.712146
H      2.467094    0.776955    0.754693
H      2.140680   -1.676546    0.190182
H      1.320897   -1.191897   -1.338388
