20

C      0.498236    0.150726   -1.734533
C      0.108409   -0.223265   -0.292633
C      0.883922    0.596817    0.701481
O      0.641381    1.826375    0.838750
O      1.889868    0.000048    1.454898
N     -1.329305   -0.021187   -0.085805
C     -2.024516   -0.575798    1.039456
O     -1.408756   -1.273864    1.889518
N     -3.422050   -0.339310    1.202536
C      1.925719   -0.198610   -2.028793
O      2.231675   -1.373773   -2.365391
O      2.918497    0.766401   -1.891145
H     -0.156211   -0.399021   -2.445948
H      0.340061    1.238073   -1.906190
H      0.340571   -1.301463   -0.140505
H      2.428629    0.539470    2.121852
H     -1.874680    0.550857   -0.770432
H     -3.947992    0.236581    0.508584
H     -3.933257   -0.740584    2.019812
H      3.889801    0.541526   -2.070294
