39

C     -2.113231    2.493577   -0.879115
C     -1.028381    1.943084    0.058717
C      0.365640    2.300787   -0.482234
C      1.465830    1.560512    0.274855
C      1.393979    0.046706   -0.011038
C     -0.006704   -0.505434    0.370546
C     -1.226257    0.427208    0.326918
C     -0.984622   -0.551473   -0.810329
C     -2.092581   -1.534650   -0.691889
C     -2.223433   -2.578841   -1.514406
C     -3.031405   -1.256164    0.431724
C     -2.442617   -0.039273    1.146505
C      2.505352   -0.760329    0.734111
C      3.906815   -0.142964    0.573795
C      2.553285   -2.217992    0.235788
H     -1.972666    3.586082   -1.023837
H     -3.124186    2.338249   -0.450344
H     -2.068291    1.996716   -1.871138
H     -1.141858    2.458589    1.038200
H      0.439849    2.064163   -1.566999
H      0.527630    3.395559   -0.371072
H      2.433422    1.972550   -0.080568
H      1.379795    1.755037    1.366919
H      1.563221   -0.095291   -1.103329
H     -0.091013   -1.351454    1.087707
H     -0.761706   -0.055730   -1.778808
H     -3.044887   -3.277912   -1.392099
H     -1.509370   -2.742729   -2.315608
H     -4.043360   -1.028102    0.032252
H     -3.081807   -2.127894    1.119744
H     -2.118285   -0.310454    2.174739
H     -3.207403    0.760597    1.230290
H      2.269897   -0.775417    1.821931
H      4.682767   -0.819908    0.991289
H      4.134158    0.039609   -0.498453
H      3.981960    0.810261    1.137327
H      1.584730   -2.734522    0.390391
H      2.802647   -2.251407   -0.846601
H      3.323085   -2.791346    0.795301
