47

C     -0.669208    2.985778    1.995533
C      0.078596    2.708946    0.674386
C      1.104831    3.835166    0.429233
C      0.699668    1.259864    0.624859
C      1.415215    1.016013   -0.743894
C      1.879722   -0.439688   -0.960452
C      2.659607   -0.579882   -2.273297
N      3.000963   -1.987969   -2.523761
C      4.261938   -2.358544   -1.875068
C      1.737395    1.148599    1.683131
N      2.548250    1.064410    2.505006
C     -0.428110    0.219010    0.817726
C     -1.449898    0.111647   -0.149987
C     -2.499415   -0.815989   -0.008080
C     -2.544146   -1.646254    1.118674
C     -1.540927   -1.540822    2.095810
C     -0.501572   -0.621506    1.950644
O     -3.602507   -2.561856    1.232121
C     -3.774937   -3.465168    2.319292
O     -3.517777   -0.941696   -0.966845
C     -3.602516   -0.172715   -2.162397
H     -1.489145    2.254214    2.150074
H      0.023902    2.939169    2.861944
H     -1.132370    3.995318    1.970682
H     -0.673920    2.798380   -0.139423
H      0.615601    4.828166    0.524667
H      1.514311    3.781797   -0.599966
H      1.938487    3.787804    1.160807
H      0.745153    1.306760   -1.581548
H      2.314093    1.667358   -0.816063
H      2.523765   -0.752528   -0.112391
H      1.000891   -1.118056   -1.000601
H      2.013212   -0.215235   -3.103137
H      3.568052    0.064805   -2.257277
H      3.141120   -2.105451   -3.554767
H      4.485671   -3.424119   -2.092896
H      4.185491   -2.247106   -0.773496
H      5.103382   -1.739838   -2.258000
H     -1.424588    0.752587   -1.018322
H     -1.555395   -2.166334    2.977865
H      0.237365   -0.577762    2.738079
H     -2.904458   -4.151345    2.387412
H     -4.689835   -4.068331    2.147588
H     -3.893808   -2.901688    3.268795
H     -4.502772   -0.484336   -2.730468
H     -3.693571    0.906480   -1.916788
H     -2.705804   -0.348057   -2.793699
