17

C      1.595031   -1.583390   -0.566511
C      1.973103   -0.243928   -0.645636
C      1.070937    0.772165   -0.310802
C     -0.228585    0.437092    0.149823
C     -0.602827   -0.923202    0.217041
C      0.310163   -1.922359   -0.146538
O     -1.874340   -1.283716    0.664874
C     -1.188353    1.474594    0.587984
O     -0.800605    2.449013    1.286879
O     -2.537468    1.357988    0.264988
O      1.489628    2.094115   -0.479419
H      2.297680   -2.360535   -0.838478
H      2.967916    0.009060   -0.990269
H      0.026660   -2.965796   -0.091776
H     -2.161694   -2.253504    0.727289
H     -3.207624    2.053090    0.571481
H      0.870378    2.889314   -0.400929
