50

C      4.856058    1.603495    0.404331
C      4.657414    0.839511   -0.907793
C      5.933915    0.093813   -1.309178
C      3.500323   -0.111129   -0.787838
O      3.567715   -1.092293    0.003500
O      2.349309    0.113872   -1.552154
C      1.145146   -0.643207   -1.421357
C      0.193439    0.018028   -0.406964
C      0.706182   -0.124034    1.040887
C     -1.324116   -0.341905   -0.598489
C     -1.781457   -1.856555   -0.597736
C     -3.329377   -1.903398   -0.501290
C     -1.212254   -2.648917    0.594779
C     -1.400316   -2.576727   -1.915419
O     -2.087112    0.376904    0.378674
C     -2.372661    1.746379    0.304724
O     -2.021202    2.425996   -0.698073
C     -3.117705    2.407471    1.428030
C     -4.513469    1.794326    1.570028
C     -2.328869    2.278707    2.734090
H      5.109694    0.906747    1.232366
H      3.927297    2.153068    0.669700
H      5.677706    2.343101    0.294718
H      4.426677    1.579329   -1.705801
H      6.227184   -0.638779   -0.526475
H      6.766938    0.814650   -1.452867
H      5.774333   -0.447238   -2.266492
H      0.657555   -0.655771   -2.418590
H      1.380508   -1.688622   -1.132435
H      0.251575    1.107915   -0.625011
H      1.037271   -1.155164    1.267935
H     -0.063184    0.177692    1.780206
H      1.580090    0.543761    1.194553
H     -1.614113    0.056270   -1.598012
H     -3.708446   -2.944832   -0.590642
H     -3.685537   -1.512170    0.475942
H     -3.790064   -1.298037   -1.311981
H     -1.370210   -2.097304    1.545933
H     -1.713581   -3.637191    0.683412
H     -0.132436   -2.855704    0.457052
H     -1.689338   -1.968959   -2.799351
H     -1.920009   -3.556446   -1.992952
H     -0.322239   -2.807635   -1.976266
H     -3.236003    3.490477    1.200473
H     -5.080063    2.317290    2.369768
H     -5.076362    1.902620    0.618113
H     -4.447139    0.714840    1.826631
H     -1.319371    2.728024    2.616092
H     -2.214739    1.211624    3.023779
H     -2.854954    2.816109    3.551708
