48

C     -0.275846   -1.792192   -1.472554
C      0.246544   -0.432950   -1.947290
C      0.331000    0.650288   -0.847069
C      1.439941    0.423874    0.154840
O      1.683089    1.313137    1.015727
O      2.204030   -0.745745    0.118040
C      3.217805   -1.040564    1.072888
C      3.840884   -2.407332    0.770917
C      4.741124   -2.391155   -0.473880
C      3.943479   -2.222133   -1.740257
C      4.154270   -1.201264   -2.575631
N     -0.981863    0.857012   -0.194863
C     -1.396242    0.070100    0.983054
C     -1.702073    0.974267    2.136909
C     -2.916783    1.073115    2.784309
C     -2.735723    2.021899    3.767596
C     -1.425808    2.444114    3.656109
O     -0.835322    1.801090    2.674660
C     -1.865676    1.872623   -0.717238
O     -1.393472    2.988966   -1.066472
N     -3.280169    1.651101   -0.814177
C     -4.241414    2.585863   -0.732096
C     -5.452808    1.968105   -0.947606
N     -5.255231    0.654364   -1.183929
C     -3.917369    0.498085   -1.100923
H      0.296830   -2.170960   -0.601109
H     -1.349492   -1.725447   -1.203544
H     -0.178024   -2.528668   -2.298055
H     -0.426420   -0.067540   -2.753929
H      1.249995   -0.571235   -2.403222
H      0.624806    1.584330   -1.375579
H      3.998731   -0.248873    1.057589
H      2.763367   -1.071273    2.087631
H      3.039083   -3.171634    0.656613
H      4.461909   -2.705984    1.643885
H      5.275889   -3.362941   -0.536063
H      5.513102   -1.596765   -0.368027
H      3.178530   -2.954520   -1.982765
H      3.563387   -1.113168   -3.482263
H      4.910231   -0.449990   -2.367106
H     -0.603911   -0.638452    1.297846
H     -2.283440   -0.547510    0.744322
H     -3.822631    0.524364    2.566897
H     -3.472920    2.370275    4.478962
H     -0.945179    3.190617    4.274355
H     -4.077404    3.636598   -0.528988
H     -6.423230    2.448183   -0.943805
H     -3.419575   -0.444077   -1.284707
