42

C      6.210166    0.306970    0.399082
C      5.002188    0.877024   -0.298146
C      5.182358    1.747635   -1.381683
C      4.065008    2.277665   -2.030298
O      4.216892    3.060349   -3.004434
O      2.839954    1.962252   -1.627178
C      2.608360    1.142594   -0.606428
C      3.684836    0.561575    0.105636
C      3.403421   -0.302409    1.180968
C      2.080763   -0.579567    1.535646
C      1.015159   -0.007772    0.833373
C      1.287858    0.858671   -0.241918
O     -0.291453   -0.328138    1.239695
C     -1.495161    0.137058    0.624750
C     -1.698225   -0.573922   -0.754163
C     -2.795688   -1.661772   -0.681162
C     -4.105364   -1.109023   -0.046984
C     -3.813517    0.086852    0.904936
O     -2.561151   -0.096831    1.536295
C     -4.905093    0.321822    1.961268
O     -4.814779   -0.622455    2.992788
O     -4.849988   -2.134956    0.566341
O     -2.316267   -2.804002   -0.010358
O     -2.051795    0.387341   -1.717423
H      6.196595   -0.801020    0.328996
H      7.156451    0.667893   -0.057363
H      6.206606    0.611695    1.466724
H      6.176932    2.013203   -1.720748
H      4.194749   -0.768373    1.752787
H      1.881133   -1.246866    2.364676
H      0.487390    1.315776   -0.806231
H     -1.407899    1.238543    0.483777
H     -0.744112   -1.060867   -1.065630
H     -3.031821   -1.984247   -1.719209
H     -4.733877   -0.710024   -0.874003
H     -3.799320    1.019336    0.288995
H     -5.909380    0.274504    1.482940
H     -4.772868    1.340494    2.390462
H     -5.556577   -0.417685    3.619378
H     -4.341285   -2.453532    1.355501
H     -2.031498   -2.533102    0.900167
H     -1.869703   -0.012691   -2.607859
