23

C      0.998874   -1.071563   -0.339598
C      2.361884   -1.264428   -0.094416
C      3.134812   -0.227885    0.438862
C      2.537453    1.006196    0.729450
C      1.174661    1.201529    0.485258
C      0.397325    0.166627   -0.060090
C     -1.077541    0.368058   -0.293796
C     -1.885562    0.100633    0.989408
C     -3.344024    0.390296    0.767809
O     -3.898597    1.342240    1.379774
O     -4.082315   -0.383914   -0.122884
O     -1.715157   -1.221540    1.437183
O      4.491544   -0.434235    0.677911
H      0.412785   -1.886875   -0.745359
H      2.817344   -2.221180   -0.316274
H      3.126953    1.812581    1.146798
H      0.724521    2.157720    0.722107
H     -1.254960    1.413323   -0.631458
H     -1.428134   -0.298827   -1.112584
H     -1.509939    0.780153    1.786440
H     -5.064405   -0.195621   -0.284566
H     -1.995654   -1.829564    0.703477
H      5.078130    0.296279    1.064116
