16

C     -1.635301   -0.270993    0.111284
C     -0.179377   -0.769308    0.084613
C      0.798716    0.225036    0.760966
C      1.006943    1.477295   -0.054743
O      0.713786    2.570298    0.403099
O      2.034433   -0.393933    1.017642
O      0.203137   -1.030666   -1.243293
O     -1.799879    0.884063   -0.667815
H     -2.312360   -1.078475   -0.250979
H     -1.932738   -0.041903    1.156783
H     -0.162503   -1.716949    0.674635
H      0.370858    0.512004    1.747155
H      1.425357    1.412848   -1.054114
H      2.460746   -0.599740    0.144713
H      0.869532   -1.765899   -1.217184
H     -1.861350    0.586323   -1.612761
