27

C      3.907176    0.242659    0.110058
C      2.788504   -0.794867    0.014521
C      1.476892   -0.208987   -0.531689
C      0.749567    0.669248    0.500648
C     -0.516523    1.337667   -0.066063
C     -1.614071    0.367786   -0.547076
C     -2.140206   -0.575578    0.556508
C     -3.248509   -1.453174    0.032490
O     -3.077815   -2.699132   -0.035128
O     -4.461978   -0.912732   -0.388048
O     -2.573513    0.135007    1.689903
H      3.677637    1.002635    0.884705
H      4.854181   -0.262619    0.394414
H      4.056762    0.745087   -0.869186
H      3.124633   -1.602018   -0.672117
H      2.617845   -1.253808    1.012666
H      1.679182    0.374406   -1.456591
H      0.821982   -1.063058   -0.804969
H      1.427349    1.483755    0.831069
H      0.499503    0.072008    1.402623
H     -0.941709    2.005943    0.713811
H     -0.224884    1.988497   -0.919132
H     -1.238719   -0.231658   -1.403578
H     -2.454866    0.981171   -0.937777
H     -1.308690   -1.240662    0.872914
H     -4.641147    0.083233   -0.360011
H     -3.238585    0.809193    1.392738
