29

C     -2.369742   -0.817302   -0.894404
C     -3.685936   -0.372013   -0.806052
C     -3.974114    0.696230    0.037290
O     -5.156189    1.120826    0.139117
N     -2.975872    1.282764    0.747607
C     -1.690603    0.841343    0.653676
O     -0.792345    1.428058    1.317168
N     -1.380467   -0.224805   -0.158392
C      0.004200   -0.721004   -0.304242
C      0.823985    0.188628   -1.204641
C      2.233454   -0.041544   -0.700555
C      2.020365   -0.540569    0.741134
O      0.645578   -0.801746    0.948763
C      2.502913    0.490299    1.771517
O      2.259830    0.033459    3.074615
O      2.928078   -0.993953   -1.473737
O      0.666978   -0.165201   -2.554413
F     -4.662901   -0.969622   -1.533810
H     -2.145845   -1.643217   -1.559473
H     -3.197996    2.090683    1.373654
H     -0.000646   -1.751245   -0.732874
H      0.536490    1.254290   -1.044494
H      2.803156    0.913690   -0.737197
H      2.588029   -1.483252    0.908193
H      1.959019    1.447823    1.625669
H      3.590043    0.691174    1.632802
H      2.946051   -0.658112    3.265871
H      2.417576   -1.845852   -1.449189
H      1.106911    0.550169   -3.083604
