44

C     -6.388205    1.175696    0.985388
C     -5.053770    0.920805    0.290426
C     -4.201859   -0.083252    1.080774
C     -2.796264   -0.262980    0.485263
C     -2.814449   -1.006442   -0.861762
C     -1.403792   -1.417664   -1.339827
C     -0.821377   -0.498963   -2.432477
C     -0.256983    0.830284   -1.906345
C      0.969579    0.629553   -1.050302
C      0.905349    0.786557    0.343069
C      2.041660    0.580012    1.130059
C      3.258228    0.215734    0.542486
C      3.325992    0.060444   -0.854977
C      2.189581    0.266478   -1.642575
O      4.368697    0.019257    1.376601
C      5.665367   -0.353305    0.917069
C      6.610302   -0.474338    2.107779
O      7.883595   -0.874721    1.680213
H     -6.986709    1.895858    0.388566
H     -6.961383    0.228647    1.078708
H     -6.221724    1.605275    1.996227
H     -5.259079    0.528331   -0.727813
H     -4.509242    1.885421    0.195231
H     -4.720806   -1.065764    1.128668
H     -4.086745    0.286599    2.123443
H     -2.191706   -0.845990    1.214027
H     -2.322629    0.731668    0.372258
H     -3.419237   -1.932049   -0.738998
H     -3.320896   -0.387453   -1.632010
H     -1.485592   -2.433508   -1.785492
H     -0.695358   -1.517859   -0.489845
H     -1.599121   -0.286197   -3.197651
H     -0.010189   -1.047386   -2.959621
H     -1.041079    1.394670   -1.362914
H      0.023731    1.460165   -2.778361
H     -0.020639    1.070631    0.823559
H      1.976880    0.703919    2.203687
H      4.250020   -0.219579   -1.341896
H      2.259852    0.141556   -2.716126
H      6.050891    0.421102    0.218660
H      5.609761   -1.332124    0.392630
H      6.669032    0.497055    2.649790
H      6.215488   -1.237660    2.811430
H      8.314825   -0.073395    1.282980
