23

C     -0.994620   -0.773551    0.524004
C      0.472039   -0.954870    0.091615
C      1.171191    0.419557   -0.015492
O      0.505897    1.254119   -0.948401
C     -0.828100    1.538251   -0.554679
C     -1.684123    0.256919   -0.387986
O     -2.944393    0.599937    0.128779
O     -0.861614    2.397757    0.562679
C      2.586132    0.233881   -0.478696
O      3.537975    0.325696    0.342386
O      2.847103   -0.074613   -1.810726
O      1.151891   -1.801825    0.986581
O     -1.674223   -1.999430    0.430500
H     -1.032287   -0.406199    1.576424
H      0.483007   -1.436752   -0.912041
H      1.206879    0.908358    0.984535
H     -1.287311    2.105549   -1.392209
H     -1.805433   -0.193060   -1.402672
H     -3.558483   -0.149934   -0.086325
H     -0.819438    1.853853    1.388823
H      3.796370   -0.215540   -2.134968
H      1.157485   -1.358692    1.875341
H     -1.425945   -2.529411    1.232528
