20

C     -2.173750    0.662818   -0.912633
N     -1.334411    0.126451    0.166182
C     -1.970570   -0.270098    1.428747
C      0.100374   -0.009511   -0.012500
C      0.854444   -0.877639    0.807437
C      2.235540   -1.005926    0.632173
C      2.888089   -0.273681   -0.359670
C      2.161062    0.589298   -1.179706
C      0.779650    0.722789   -1.010941
H     -3.254195    0.512168   -0.704833
H     -1.991497    1.751868   -1.026464
H     -1.942158    0.141861   -1.865870
H     -1.421936    0.176934    2.284818
H     -3.022017    0.082562    1.486435
H     -1.970816   -1.376395    1.519918
H      0.382997   -1.469042    1.579752
H      2.800462   -1.676947    1.266452
H      3.957443   -0.375015   -0.492843
H      2.668907    1.158668   -1.947577
H      0.252384    1.408837   -1.658877
