23

C      0.619643    1.538091   -0.481534
C      1.938576    1.734824   -0.064892
C      2.661536    0.687751    0.513744
C      2.056825   -0.569418    0.677623
C      0.732836   -0.766125    0.258677
C      0.002485    0.284983   -0.326532
C     -1.431429    0.082244   -0.777481
C     -2.358575   -0.226676    0.420007
N     -3.761869   -0.294502    0.015055
O     -1.501510   -0.918612   -1.763903
O      2.771402   -1.617519    1.255861
O      3.976237    0.914572    0.919595
H      0.081508    2.366609   -0.924964
H      2.400887    2.705609   -0.191652
H      0.276407   -1.738097    0.394506
H     -1.798220    1.022998   -1.243644
H     -2.073417   -1.189854    0.895684
H     -2.247889    0.571276    1.186579
H     -4.028835    0.608347   -0.440610
H     -3.876763   -1.056558   -0.691732
H     -1.339588   -1.794898   -1.327265
H      2.358546   -2.533804    1.385717
H      4.541206    0.188757    1.343924
