22

C      0.596238    0.439826   -1.029749
C     -0.509807   -0.028591   -0.075879
O     -1.676074    0.716492   -0.335636
P     -2.873753    0.266015    0.793628
O     -2.458210    0.689175    2.185915
O     -3.129726   -1.408637    0.753581
O     -4.321038    1.044159    0.391923
C      1.978195   -0.211101   -0.782770
C      2.529639    0.141867    0.576730
O      2.414117   -0.657697    1.543685
O      3.132930    1.378332    0.788510
N      1.959147   -1.663789   -0.986618
H      0.279429    0.230964   -2.075020
H      0.702452    1.543429   -0.937452
H     -0.704435   -1.107839   -0.257143
H     -0.170498    0.127323    0.972695
H     -2.466602   -1.788428    1.383870
H     -4.088270    2.006113    0.352985
H      2.676873    0.216774   -1.535130
H      3.222356    2.053844    0.038958
H      1.327166   -2.121074   -0.291240
H      1.579871   -1.867158   -1.939992
