26

C     -2.725785   -1.031378   -0.374084
C     -1.232307   -0.881331   -0.345022
C     -0.423217   -1.916519   -0.487689
C      0.944918   -1.470853   -0.436559
O      1.933773   -2.236377   -0.586187
C      1.028944    0.012172   -0.285463
C     -0.485969    0.422179   -0.118715
C     -0.878337    1.455792   -1.192948
C     -0.849469    0.969363    1.281498
C      1.980656    0.431783    0.860395
C      3.413812    0.137971    0.532099
O      4.023185    0.832737   -0.323313
O      4.071541   -0.912870    1.159128
H     -3.231344   -0.055797   -0.227989
H     -3.040010   -1.447101   -1.354456
H     -3.048266   -1.720409    0.434642
H     -0.743385   -2.939134   -0.643428
H      1.432881    0.418595   -1.240697
H     -1.943317    1.754652   -1.094009
H     -0.727664    1.038352   -2.212205
H     -0.252321    2.368078   -1.089908
H     -0.603032    0.229762    2.072740
H     -1.936705    1.184693    1.350648
H     -0.316650    1.920671    1.488351
H      1.711000   -0.090898    1.803246
H      1.897067    1.525867    1.029925
