20

C      0.200917   -0.342956   -1.088457
C      0.983100   -1.421400   -0.936455
C      2.042860   -1.570064    0.078857
O      2.885997   -2.497375   -0.046096
O      2.093412   -0.745398    1.199301
C      0.395915    0.950421   -0.392972
C     -0.643349    1.642652    0.107178
C     -2.035276    1.149036    0.160583
O     -2.962757    1.927641   -0.185043
C     -2.382047   -0.188559    0.672252
O     -1.522292   -0.890314    1.269770
O     -3.680362   -0.667338    0.525444
N      1.695085    1.555867   -0.401299
H     -0.620937   -0.412456   -1.791415
H      0.791471   -2.274544   -1.576199
H      2.813567   -0.864987    1.901527
H     -0.474523    2.654407    0.456300
H     -3.941080   -1.579678    0.880331
H      2.489489    1.105775   -0.908046
H      1.870811    2.469271    0.074438
