18

C     -1.830078   -1.026560   -0.111228
C     -1.045394    0.263351    0.142752
C      0.389946    0.229190   -0.446996
C      1.082580    1.584215   -0.213786
C      1.207778   -0.845316    0.232255
O      1.794486   -1.729638   -0.448986
O      1.331250   -0.853669    1.619497
O      0.340812   -0.034041   -1.831318
H     -1.922919   -1.219360   -1.200751
H     -2.850525   -0.927612    0.315186
H     -1.331716   -1.891683    0.374334
H     -1.612432    1.107170   -0.308493
H     -1.003734    0.446307    1.239222
H      0.513764    2.402901   -0.704653
H      1.152455    1.811593    0.872142
H      2.108651    1.570441   -0.640909
H      1.879582   -1.564708    2.088309
H     -0.204506    0.677419   -2.259610
