29

C      4.433811    0.150101   -0.363928
N      3.594901    0.704461    0.701502
C      2.630868   -0.274289    1.231970
C      1.568948   -0.733454    0.211922
C      0.691570    0.418820   -0.299958
C     -0.498097   -0.106983   -1.056475
O     -0.305136   -0.606897   -2.198370
C     -1.886491   -0.015064   -0.533508
C     -2.200801   -0.144754    0.838478
N     -3.495919   -0.034210    1.255178
C     -4.515966    0.181167    0.380129
O     -5.699687    0.276057    0.801332
C     -4.253371    0.293026   -0.984549
C     -2.940086    0.190564   -1.438850
O     -1.203456   -0.410746    1.774715
H      5.281315    0.841415   -0.552847
H      4.855405   -0.834357   -0.066648
H      3.858499    0.047606   -1.308720
H      3.096548    1.551607    0.345186
H      2.115143    0.176152    2.107602
H      3.176084   -1.165094    1.614114
H      2.051450   -1.251052   -0.643967
H      0.926766   -1.487991    0.715640
H      1.284143    1.052493   -0.993653
H      0.366749    1.072016    0.537279
H     -3.713769   -0.126971    2.273382
H     -5.058761    0.460998   -1.689107
H     -2.744830    0.288800   -2.499829
H     -1.415829   -0.513423    2.759683
