25

C     -1.148872   -0.230884    2.277081
C     -0.605447   -1.594862    1.832627
C      0.592988   -1.445676    0.996546
C      1.573148   -1.317505    0.306652
C      2.739917   -1.160050   -0.518753
C      3.191036    0.057404   -0.828474
C      4.382044    0.265810   -1.672848
O      5.021458   -0.715016   -2.139568
O      4.812810    1.556452   -1.964847
C     -1.605518    0.609995    1.112707
C     -2.694526    0.291644    0.398781
C     -3.133722    1.145297   -0.756763
O     -4.278918    0.602984   -1.355918
H     -2.000090   -0.384074    2.975538
H     -0.356853    0.317355    2.833207
H     -1.378992   -2.156326    1.266847
H     -0.336547   -2.189262    2.731554
H      3.237199   -2.049905   -0.884014
H      2.673082    0.931761   -0.449819
H      4.323279    2.368543   -1.607544
H     -1.041503    1.506376    0.866905
H     -3.269893   -0.594906    0.654366
H     -3.333206    2.184944   -0.410096
H     -2.321272    1.180580   -1.513234
H     -5.041605    0.819323   -0.757706
