34

C      0.520303   -1.743037    0.452821
C     -0.035525   -0.416013    1.019657
C      0.741112    0.840759    0.485929
C      2.124806    0.572908   -0.057364
C      2.699629   -0.704702    0.055631
O      1.939498   -1.771577    0.531546
C      4.032988   -0.911984   -0.313014
C      4.793230    0.143845   -0.826386
C      4.218109    1.415048   -0.958906
C      2.893252    1.630704   -0.567729
O      6.116005   -0.079840   -1.201462
O     -0.103913    1.424745   -0.506089
C     -1.366679    0.878358   -0.428175
C     -2.496485    1.283134   -1.154165
C     -3.672508    0.566275   -0.909902
C     -3.721042   -0.472985   -0.022015
C     -2.597945   -0.888277    0.701710
C     -1.411610   -0.165158    0.478214
O     -5.000748   -0.992080    0.003582
C     -5.805579   -0.238801   -0.915431
O     -4.920338    0.742354   -1.475312
O     -0.026652   -0.418096    2.427173
H      0.104607   -2.612750    1.004433
H      0.231248   -1.854422   -0.616391
H      0.841582    1.576621    1.315405
H      4.472557   -1.896757   -0.215931
H      4.800889    2.239027   -1.350519
H      2.471415    2.625244   -0.644865
H      6.692850    0.663962   -1.576815
H     -2.460446    2.100264   -1.862111
H     -2.640181   -1.727016    1.383561
H     -6.637432    0.260165   -0.375484
H     -6.196091   -0.902543   -1.715072
H     -0.600902   -1.167377    2.734314
