19

C     -3.006761    0.800520    0.017145
C     -1.726778    0.372778    0.671854
O     -1.192848    1.118418    1.479099
C     -1.088276   -0.951730    0.353270
C      0.170214   -0.744134   -0.445077
O      0.090895   -0.317117   -1.587717
C      1.523577   -1.050860    0.136377
C      2.248827    0.222898    0.461917
O      2.120930    0.727325    1.609661
C      3.069909    0.918043   -0.542322
O      3.194494    0.450406   -1.704989
O      3.714833    2.103155   -0.210834
H     -2.843491    1.753965   -0.527557
H     -3.786891    0.953809    0.791858
H     -3.366443    0.038473   -0.705408
H     -1.780108   -1.595719   -0.230481
H     -0.873572   -1.482312    1.305378
H      1.422111   -1.657042    1.062165
H      2.109378   -1.660878   -0.584357
