15

C     -0.411377   -0.108636    0.088656
C     -1.368465    0.823250    0.074681
C     -2.793554    0.481026    0.197962
O     -3.654927    1.399827    0.178716
O     -3.200845   -0.843708    0.335393
C      1.008164    0.262949   -0.036703
C      1.965247   -0.668937   -0.022727
C      3.390344   -0.326683   -0.146013
O      4.253271   -1.242665   -0.127104
O      3.800762    0.994696   -0.283375
H     -0.674199   -1.155327    0.193325
H     -1.100857    1.868705   -0.030203
H     -4.182336   -1.079707    0.420325
H      1.271064    1.309623   -0.141374
H      1.697707   -1.714412    0.082153
