43

C     -4.011471    0.745588    1.865839
C     -4.206673    0.920724    0.552077
C     -5.269651    1.845913    0.108206
O     -5.474863    2.062635   -1.115232
C     -3.333462    0.203645   -0.469206
C     -1.856800    0.626604   -0.371349
C     -1.094696   -0.609597    0.129050
C     -2.094151   -1.712045    0.072740
C     -3.309654   -1.274999   -0.243645
C     -4.504776   -2.131524   -0.371324
O     -5.611504   -1.633889   -0.707156
C     -1.746904   -3.136265    0.404135
O     -1.882568   -3.931993   -0.739788
O      0.013970   -0.914294   -0.716475
C      1.189629   -0.157792   -0.735330
O      1.300665    0.863554   -0.003012
C      2.262316   -0.544012   -1.671327
C      3.540818   -0.139743   -1.606958
C      4.144507    0.613698   -0.488252
C      3.987467    0.191709    0.843916
C      4.607810    0.892148    1.882870
C      5.407809    2.004357    1.602191
C      5.591660    2.410705    0.273582
C      4.971978    1.711578   -0.766970
O      6.018781    2.693786    2.647098
H     -4.623554    1.259546    2.596894
H     -3.234582    0.086998    2.232570
H     -5.889257    2.353849    0.836950
H     -3.697428    0.389519   -1.503199
H     -1.701058    1.486420    0.317266
H     -1.491720    0.925867   -1.379107
H     -0.759476   -0.474444    1.181583
H     -4.447861   -3.194587   -0.181286
H     -2.416042   -3.504109    1.213485
H     -0.697333   -3.190071    0.769739
H     -1.665788   -4.858310   -0.457408
H      1.975734   -1.171523   -2.506227
H      4.190105   -0.391706   -2.436938
H      3.392680   -0.682719    1.077541
H      4.473222    0.565578    2.906228
H      6.217137    3.264522    0.046135
H      5.129444    2.032530   -1.789588
H      6.605537    3.502149    2.476366
