18

C     -2.163188    0.881418    1.171240
C     -1.137868    0.609703    0.065314
C     -1.717097   -0.351572   -0.978229
C      0.132378    0.052127    0.645914
N      1.184110   -0.077814   -0.096431
O      2.354465   -0.575694    0.429039
C      3.503277   -0.717814   -0.389309
H     -1.745150    1.596436    1.912046
H     -2.436264   -0.060387    1.694841
H     -3.082678    1.330665    0.738767
H     -0.903900    1.576466   -0.432774
H     -1.949762   -1.336140   -0.517709
H     -2.648350    0.070698   -1.412664
H     -0.991445   -0.504648   -1.805543
H      0.179464   -0.223882    1.693774
H      3.283289   -1.409767   -1.229214
H      3.803108    0.272521   -0.791745
H      4.335612   -1.132316    0.215648
