43

C      6.017801   -1.885834    0.674351
C      6.674308   -0.672121    0.613000
N      5.870256    0.310699    1.056743
C      4.708083   -0.268214    1.411065
C      4.757800   -1.628873    1.177469
C      3.509358    0.488205    1.890220
C      2.691345    0.936731    0.720613
C      2.825713    2.145496    0.062609
C      1.922735    2.120068   -0.982060
C      1.297823    0.887914   -0.924318
N      1.764126    0.171422    0.115397
C      0.195481    0.429602   -1.825844
C     -1.129102    0.764875   -1.216718
C     -1.842094    1.929263   -1.435560
C     -2.964744    1.852017   -0.634917
C     -2.870377    0.654781    0.050538
N     -1.754660   -0.006998   -0.308582
C     -3.893329    0.113174    0.998463
C     -4.858287   -0.759645    0.259705
C     -6.026533   -0.334215   -0.342413
C     -6.560267   -1.442501   -0.969810
C     -5.690176   -2.488679   -0.732551
N     -4.652126   -2.066240    0.011292
H      6.409529   -2.848323    0.373938
H      7.682406   -0.516130    0.252252
H      6.102143    1.327886    1.102458
H      3.965811   -2.347903    1.340623
H      3.835734    1.368619    2.484415
H      2.892947   -0.158970    2.550446
H      3.502400    2.951667    0.313476
H      1.741512    2.908998   -1.700044
H      1.465010   -0.788926    0.397377
H      0.269192   -0.668664   -1.975489
H      0.290626    0.916515   -2.820452
H     -1.575449    2.740949   -2.099505
H     -3.758427    2.583707   -0.561094
H     -1.436576   -0.936016    0.047779
H     -3.389059   -0.477390    1.792810
H     -4.437242    0.949329    1.488737
H     -6.435314    0.667645   -0.337534
H     -7.474765   -1.480650   -1.546281
H     -5.805784   -3.501704   -1.094688
H     -3.837827   -2.641439    0.322084
