11

C     -1.328827   -0.590849   -0.151620
C     -0.629094    0.683420    0.208378
C      0.701936    0.845166    0.235147
C      1.705999   -0.191504   -0.081696
O      2.928197    0.101687   -0.015041
O      1.344036   -1.480908   -0.451235
H     -2.427077   -0.440251   -0.091082
H     -1.049106   -1.396464    0.559218
H     -1.075775   -0.887316   -1.191151
H     -1.248480    1.534522    0.465383
H      1.078192    1.822496    0.513699
