48

C     -1.018865    3.008365    0.755858
C      0.510859    2.933117    0.508299
N      1.006592    1.547435    0.553660
C      0.087240    0.410232    0.479919
C     -0.971267    0.807349   -0.567595
C     -1.882312    1.917460    0.034230
O     -2.795276    1.408800    0.997546
C     -3.828396    0.638571    0.418682
C     -3.441181   -0.808918    0.471686
C     -2.388613   -1.276326   -0.220360
C     -1.661770   -0.400767   -1.225020
C     -0.570874   -1.220676   -1.922419
C      0.306263   -1.868630   -0.839789
C      0.971389   -0.842008    0.109861
C      1.236643   -1.692296    1.347162
C      0.044448   -2.632732    1.402055
N     -0.447800   -2.817073    0.022972
C     -1.929324   -2.713590   -0.055443
C      2.239248   -0.197004   -0.367159
C      3.361963   -0.790081   -0.955442
C      4.474475    0.015469   -1.244107
C      4.459390    1.386426   -0.927397
C      3.333450    1.958925   -0.315897
C      2.236169    1.138901   -0.035439
H     -1.380632    4.018615    0.465411
H     -1.170616    2.928645    1.855463
H      1.041050    3.538805    1.273767
H      0.729822    3.369797   -0.490610
H     -0.410356    0.268166    1.466046
H     -0.441924    1.312290   -1.411529
H     -2.427584    2.423375   -0.796778
H     -4.742119    0.776510    1.033607
H     -4.098981    0.945027   -0.617510
H     -3.985986   -1.465297    1.144691
H     -2.377049   -0.045735   -1.999329
H      0.052085   -0.586089   -2.591015
H     -1.028258   -2.006325   -2.563038
H      1.095069   -2.453999   -1.359770
H      2.163067   -2.296115    1.215222
H      1.336618   -1.092014    2.278671
H     -0.727685   -2.183220    2.068443
H      0.344592   -3.614365    1.826495
H     -2.403681   -3.198814    0.827689
H     -2.278293   -3.292425   -0.936580
H      3.383695   -1.848730   -1.176273
H      5.350920   -0.421625   -1.704536
H      5.321640    2.000909   -1.151331
H      3.322152    3.011667   -0.066125
