26

C     -2.774071   -1.098928    0.830399
C     -2.989346   -0.086974   -0.298253
C     -1.942865    1.041862   -0.256669
C     -0.566668    0.534797   -0.559405
O     -0.214812    0.357199   -1.757655
O      0.296568    0.218778    0.496003
C      1.623805   -0.273702    0.310255
C      2.076850   -0.939686    1.611505
C      2.559654    0.884097   -0.086075
C      3.922360    0.392892   -0.468707
O      4.112374   -0.131567   -1.597575
O      4.974919    0.485286    0.433165
O     -4.275058    0.461076   -0.168503
H     -2.803523   -0.592465    1.818884
H     -3.574962   -1.867959    0.801409
H     -1.797536   -1.614523    0.713602
H     -2.912283   -0.630328   -1.269761
H     -2.207420    1.817259   -1.008213
H     -1.948519    1.530847    0.741794
H      1.619763   -1.048231   -0.489959
H      2.118751   -0.195670    2.435546
H      1.357652   -1.738472    1.891617
H      3.077700   -1.403975    1.486571
H      2.644741    1.608389    0.753042
H      2.130826    1.432024   -0.951994
H     -4.508899    0.857975   -1.048258
