50

C      1.693009   -0.967054    1.851834
C      1.380642    0.541679    1.815267
C     -0.125667    0.787899    1.891246
C     -0.489780    1.301780    0.483267
O      0.638626    1.173159   -0.352500
C      1.758616    1.230046    0.496192
C      2.991239    0.663374   -0.176631
C      2.886315   -0.320064   -1.190261
C      4.062046   -0.827296   -1.734882
C      5.285061   -0.413783   -1.319304
C      5.439572    0.541524   -0.320595
C      4.276573    1.080224    0.258534
O      6.263478   -1.084451   -2.027377
C      5.613872   -1.975608   -2.944799
O      4.209982   -1.780012   -2.724310
C     -1.660612    0.539994   -0.096812
C     -2.961948    1.048636    0.036173
C     -4.068591    0.331029   -0.458803
C     -3.868807   -0.911152   -1.080613
C     -2.565096   -1.428296   -1.196088
C     -1.474198   -0.712123   -0.702010
O     -4.990123   -1.602209   -1.566612
C     -4.938192   -2.868819   -2.215109
O     -5.381265    0.817119   -0.348893
C     -5.735681    2.054674    0.259860
C     -0.485283    1.810673    2.978308
H      1.306548   -1.409769    2.794482
H      1.224170   -1.491271    0.992450
H      2.790028   -1.137174    1.828868
H      1.928106    1.024073    2.656888
H     -0.675257   -0.153043    2.128450
H     -0.749003    2.385680    0.514022
H      1.959542    2.306466    0.710748
H      1.927959   -0.683451   -1.536566
H      6.422968    0.855244    0.003779
H      4.372725    1.816345    1.046897
H      5.893935   -3.026391   -2.721380
H      5.878261   -1.709326   -3.989637
H     -3.104924    2.001273    0.528412
H     -2.383995   -2.386848   -1.662656
H     -0.483455   -1.137916   -0.791041
H     -5.967046   -3.175719   -2.493689
H     -4.513175   -3.631813   -1.529268
H     -4.325411   -2.800141   -3.138692
H     -5.252566    2.897348   -0.278425
H     -5.430084    2.056425    1.327518
H     -6.836063    2.183141    0.205514
H     -1.579096    2.004395    2.967635
H      0.052477    2.769438    2.813716
H     -0.210430    1.412091    3.978031
