20

C      0.399387    1.037448   -0.448707
C     -0.353010    0.718284    0.877332
C     -1.338601   -0.486496    0.885765
C     -2.487994   -0.408153   -0.139193
F     -2.036006   -0.675850   -1.417164
F     -3.087125    0.838632   -0.117907
F     -3.444798   -1.356027    0.178318
F     -0.656045   -1.675244    0.708728
F     -1.910528   -0.536044    2.147338
F      0.574453    0.525317    1.886303
F     -1.069094    1.853139    1.225306
C      1.324091   -0.062798   -1.046483
C      2.462876   -0.542758   -0.124210
F      1.982021   -1.367875    0.874353
F      3.123276    0.530010    0.447563
F      3.375479   -1.268261   -0.869564
F      0.581277   -1.155297   -1.452708
F      1.908799    0.470585   -2.184351
F     -0.523640    1.398325   -1.414746
F      1.175181    2.163064   -0.218729
