15

C      2.067103   -0.704326   -0.339188
N      2.166452    0.494900    0.272253
C      0.886076    0.853813    0.487240
C      0.030118   -0.122958    0.004983
N      0.791884   -1.101887   -0.515422
C     -1.447653   -0.157327    0.061901
O     -2.069192    0.605616    0.847204
N     -2.190688   -1.062823   -0.756419
N      0.521225    2.096243    1.091142
H      2.923797   -1.287192   -0.650741
H      0.480671   -2.001025   -0.944136
H     -3.231236   -1.102836   -0.678711
H     -1.724616   -1.661403   -1.472390
H      1.266543    2.742545    1.432635
H     -0.470483    2.408660    1.159650
