36

C      3.727590   -0.972159   -0.285355
C      2.407544   -0.952188   -0.735927
C      1.646632    0.230773   -0.690608
C      2.239242    1.407410   -0.170230
C      3.576535    1.375967    0.263895
C      4.328783    0.190911    0.213745
N      5.693995    0.165723    0.670631
O      6.237264    1.199000    1.113702
O      6.425207   -0.999309    0.625409
N      1.492157    2.630218   -0.047458
O      2.068302    3.731440   -0.166232
O      0.190395    2.608471    0.397225
N      0.311169    0.263800   -1.235872
C     -0.558278   -0.907834   -1.373786
C     -0.897314   -1.537439   -0.011994
C     -1.460050   -0.546389    1.025344
C     -2.718027    0.218264    0.577466
C     -3.910416   -0.706992    0.305430
C     -5.142814    0.098490    0.025040
O     -5.450284    0.383902   -1.162210
O     -5.930169    0.574235    1.069448
H      4.282425   -1.899914   -0.339386
H      1.996202   -1.865233   -1.141457
H      4.023405    2.277260    0.664136
H     -0.067713    1.170872   -1.588351
H     -1.498445   -0.611180   -1.886017
H     -0.077171   -1.663136   -2.029273
H     -1.618385   -2.367485   -0.167519
H      0.019791   -1.997711    0.412787
H     -1.692410   -1.106359    1.957297
H     -0.671038    0.189585    1.288176
H     -2.990427    0.924758    1.392471
H     -2.496819    0.830906   -0.322411
H     -3.698831   -1.357688   -0.569576
H     -4.094098   -1.358827    1.186618
H     -5.693950    0.377858    2.034772
