22

C      2.542086   -0.461218   -0.183841
C      1.176031   -0.444602    0.519119
C      0.015762   -0.395405   -0.499917
C     -1.384741   -0.485932    0.169965
C     -2.246367    0.598197   -0.505952
C     -1.240672    1.385352   -1.253533
O     -1.496507    2.446789   -1.880159
O      0.016390    0.827571   -1.216943
O     -2.885464    1.394695    0.456406
O     -1.955519   -1.752327   -0.031383
O      1.099049    0.621879    1.434563
O      3.562557   -0.560194    0.770517
H      2.593886   -1.334944   -0.871863
H      2.675238    0.469838   -0.779565
H      1.082847   -1.393091    1.092341
H      0.129923   -1.226849   -1.231500
H     -1.318717   -0.274998    1.263692
H     -2.980862    0.149650   -1.214780
H     -3.581164    1.915620   -0.023586
H     -1.457422   -2.381160    0.553478
H      1.238521    1.465839    0.930749
H      4.415144   -0.564709    0.262510
