41

C      6.963096    0.357383   -2.013247
O      6.455787    0.221445   -0.689725
C      5.098162    0.058022   -0.372717
C      4.735497   -0.063152    0.975256
C      3.390002   -0.231478    1.332863
C      2.387573   -0.287469    0.346397
C      2.757098   -0.149996   -1.001683
C      4.097055    0.015895   -1.360109
C      0.954558   -0.454576    0.697342
C      0.549907   -1.124151    1.862720
C     -0.811106   -1.252793    2.141730
O     -1.162863   -1.857353    3.190636
C     -1.760900   -0.712219    1.248789
C     -3.156351   -0.797918    1.458387
C     -4.055435   -0.240887    0.523136
C     -3.551804    0.408001   -0.634028
C     -2.161200    0.485482   -0.828518
C     -1.274803   -0.063449    0.095123
O      0.032361    0.034385   -0.128011
O     -4.438299    0.964254   -1.570075
C     -4.052132    1.637116   -2.764540
O     -5.430781   -0.366659    0.802714
C     -6.510801    0.113928    0.009889
O     -3.650323   -1.438133    2.599168
O      5.721815   -0.010915    1.959123
H      6.532471    1.259766   -2.496443
H      8.065651    0.470306   -1.968953
H      6.722109   -0.547990   -2.609439
H      3.135873   -0.291531    2.382529
H      2.008332   -0.183287   -1.783718
H      4.343417    0.110156   -2.408844
H      1.272785   -1.566290    2.536274
H     -1.750361    0.974644   -1.701366
H     -4.963387    1.967208   -3.303912
H     -3.441987    2.531891   -2.519153
H     -3.480239    0.949600   -3.422856
H     -7.465590   -0.147862    0.509962
H     -6.460244    1.219336   -0.080449
H     -6.500422   -0.370176   -0.989199
H     -4.639864   -1.526175    2.795536
H      5.495339   -0.094359    2.943327
