24

C      4.001929    0.602210   -0.441710
N      3.030216    0.057006    0.507518
C      1.674054    0.148266   -0.044723
C      0.654055   -0.319855    0.995901
C     -0.746385   -0.211764    0.454220
C     -1.313187   -1.278516   -0.262289
C     -2.601971   -1.165464   -0.792749
C     -3.332575    0.018212   -0.620999
C     -2.766384    1.087453    0.080774
C     -1.477747    0.976858    0.612186
O     -4.617350    0.142380   -1.144820
H      5.024182    0.500927   -0.020005
H      3.963487    0.054027   -1.409170
H      3.808259    1.682705   -0.615081
H      3.259904   -0.956039    0.641675
H      1.587847   -0.483782   -0.958375
H      1.446644    1.204029   -0.316392
H      0.867247   -1.373679    1.280627
H      0.753222    0.297352    1.915880
H     -0.756707   -2.195727   -0.410773
H     -3.030063   -1.996050   -1.339389
H     -3.324212    2.006040    0.211426
H     -1.049594    1.816956    1.144995
H     -5.054873   -0.613545   -1.658665
