13

C      0.300630    1.247529   -0.417680
C     -1.090048    1.105954   -0.364891
C     -1.655562   -0.106935    0.042279
C     -0.829856   -1.178907    0.396874
C      0.560961   -1.038761    0.344561
C      1.130107    0.176779   -0.063508
O      2.513482    0.329968   -0.120148
F     -3.003504   -0.243455    0.093214
H      0.733725    2.188144   -0.733425
H     -1.727900    1.936226   -0.639540
H     -1.266254   -2.117965    0.712113
H      1.193857   -1.872595    0.620423
H      3.140362   -0.425982    0.129730
