14

C     -1.822283   -0.025027    0.244239
O     -2.361481   -0.449332    1.301712
C     -0.478511   -0.543755   -0.179010
C      0.649160    0.309971    0.440379
C      2.051232   -0.173203    0.035889
F      2.211783   -0.109126   -1.336932
F      3.003332    0.637386    0.627745
F      2.258838   -1.474624    0.457456
F      0.550165    0.266487    1.822237
F      0.502742    1.626850    0.033359
F     -0.402910   -0.501872   -1.561289
F     -0.356809   -1.862896    0.227125
O     -2.453419    0.963191   -0.505694
H     -3.351838    1.335952   -0.222733
