27

C     -0.606583   -1.706490    1.046360
C     -0.221350   -0.218004    1.054251
C     -1.256554    0.658140    0.318383
O     -1.383116    0.260767   -1.029671
C     -2.744171    0.058790   -1.245035
C     -3.452209    0.550698   -0.018703
O     -2.494912    0.596410    0.987921
C      1.178854    0.005902    0.506535
C      1.566799   -0.498887   -0.751257
C      2.853295   -0.260840   -1.244167
C      3.763832    0.487483   -0.495427
C      3.388725    1.002770    0.746921
C      2.103594    0.768065    1.245029
H      0.173075   -2.303533    1.565947
H     -0.723922   -2.093172    0.012838
H     -1.567523   -1.854110    1.583481
H     -0.235631    0.096066    2.122528
H     -0.905031    1.714209    0.340997
H     -2.931484   -1.026855   -1.393319
H     -3.073732    0.617441   -2.146964
H     -4.274738   -0.137807    0.270225
H     -3.863089    1.570934   -0.184136
H      0.878605   -1.074690   -1.355023
H      3.143459   -0.654995   -2.209570
H      4.758867    0.671240   -0.879626
H      4.093566    1.587266    1.324075
H      1.831375    1.183202    2.207428
