21

C     -1.595275    0.101088    0.365390
C     -0.238194   -0.536597    0.715629
C     -0.477669   -1.877439    1.345134
O     -0.305065   -2.034266    2.583824
O     -0.922202   -2.943544    0.567687
N      0.569981   -0.734233   -0.491728
C      1.422041    0.090417   -1.034088
N      1.721554    1.370357   -0.460773
N      2.089347   -0.303751   -2.232825
C     -1.453394    1.520920   -0.094768
O     -1.446233    1.785680   -1.325817
O     -1.302820    2.551764    0.828137
H     -2.101442   -0.496517   -0.425126
H     -2.253820    0.092752    1.261614
H      0.302548    0.086192    1.459657
H     -1.098902   -3.850738    0.982280
H      2.401618    2.002287   -0.938125
H      1.301899    1.711929    0.428838
H      1.892887   -1.232186   -2.669017
H      2.780840    0.331224   -2.689504
H     -1.287700    2.364661    1.823579
