15

C     -0.586034    1.176702    0.239614
C      0.802679    1.314052    0.328727
C      1.634756    0.211339    0.116051
C      1.071845   -1.034696   -0.187345
C     -0.316332   -1.175966   -0.277317
C     -1.161446   -0.070328   -0.064531
N     -2.591109   -0.209779   -0.155830
O     -3.107472   -1.314191   -0.425473
O     -3.414085    0.873311    0.052816
O      3.016366    0.363645    0.208228
H     -1.208435    2.045791    0.408637
H      1.232745    2.279493    0.563547
H      1.708666   -1.894280   -0.353624
H     -0.728222   -2.148831   -0.513040
H      3.646077   -0.416261    0.059540
