18

C     -2.494814    0.759763    0.100313
C     -1.388548   -0.082071   -0.529055
C     -0.077929    0.046513    0.258791
C      1.038619   -0.822970   -0.352725
C      2.279957   -0.793458    0.502130
O      2.705222   -1.859340    1.020759
O      2.971092    0.394292    0.731859
O      1.341843   -0.429446   -1.668301
H     -3.428535    0.648059   -0.490171
H     -2.206022    1.832432    0.108595
H     -2.690643    0.424205    1.141042
H     -1.234163    0.256743   -1.576432
H     -1.713072   -1.145332   -0.547122
H      0.236665    1.112979    0.277446
H     -0.254460   -0.278565    1.308322
H      0.672074   -1.872760   -0.392312
H      2.663810    1.274607    0.337469
H      1.578903    0.534351   -1.652725
