44

C     -3.568624    4.605022    1.277499
C     -3.228482    3.423593    0.432137
O     -3.674252    3.351707   -0.744121
N     -2.404069    2.377541    0.964003
C     -2.090187    1.163646    0.204595
C     -3.246943    0.155984    0.327181
C     -3.035531   -1.042885   -0.562988
C     -3.371344   -0.980078   -1.927495
C     -3.135023   -2.075687   -2.762577
C     -2.556768   -3.237228   -2.243913
C     -2.208288   -3.305010   -0.891470
C     -2.442646   -2.212430   -0.053389
C     -0.793262    0.573655    0.692098
O     -0.689343    0.185059    1.886621
O      0.247894    0.375822   -0.225882
C      1.592262    0.123621    0.092521
C      2.400547   -0.465744   -0.887322
C      3.759675   -0.713578   -0.641310
C      4.574639   -1.289608   -1.630132
C      5.930250   -1.520464   -1.376789
C      6.480078   -1.183775   -0.134943
C      5.678678   -0.612441    0.859724
C      4.318171   -0.368979    0.613601
C      3.510210    0.225748    1.590707
C      2.161668    0.482128    1.329342
H     -4.175680    5.336506    0.701597
H     -4.149758    4.274088    2.162447
H     -2.633131    5.098639    1.616330
H     -2.092808    2.455303    1.959613
H     -1.959216    1.432792   -0.867308
H     -3.359689   -0.163769    1.387015
H     -4.199839    0.654608    0.042713
H     -3.809767   -0.081586   -2.343952
H     -3.395856   -2.023184   -3.813504
H     -2.373557   -4.082667   -2.891086
H     -1.752708   -4.203723   -0.493774
H     -2.156669   -2.275316    0.989229
H      1.964683   -0.723402   -1.844747
H      4.165705   -1.556217   -2.598189
H      6.556916   -1.959467   -2.144779
H      7.530308   -1.364222    0.055420
H      6.121411   -0.359765    1.813390
H      3.926285    0.511795    2.549891
H      1.584061    0.993967    2.085767
