15

C     -2.402401    0.788895   -0.054532
C     -1.123039    0.036058    0.105565
C      0.146830    0.544221   -0.071032
C      0.975052   -0.509173    0.271276
N      0.238441   -1.575779    0.643249
N     -1.035549   -1.232609    0.544496
C      2.441414   -0.490733    0.254744
O      3.088360   -1.516501    0.596233
O      3.120448    0.658698   -0.138017
H     -2.662554    1.283437    0.904219
H     -2.295544    1.559380   -0.846921
H     -3.218574    0.092671   -0.340042
H      0.427297    1.539267   -0.391509
H     -1.833209   -1.862064    0.784742
H      4.133029    0.684232   -0.153821
