31

C      3.262260    0.479832    1.499366
C      1.958732    0.781653    0.751198
C      1.766882   -0.142071   -0.478873
C      0.411335    0.104959   -1.102441
O      0.312178    0.927482   -2.054381
N     -0.781013   -0.507262   -0.570607
C     -0.779906   -1.699723    0.261889
C     -2.229364   -2.163065    0.327498
C     -3.073046   -0.975093   -0.125053
C     -2.127513   -0.073498   -0.922179
C     -2.340541    1.376953   -0.585241
O     -1.924651    1.844864    0.509373
O     -3.030604    2.196758   -1.472237
N      2.821168    0.034185   -1.485860
O      1.935195    2.130347    0.356714
H      3.292111    1.059070    2.446519
H      3.324601   -0.600568    1.749763
H      4.143780    0.768037    0.889109
H      1.115669    0.587198    1.455776
H      1.807296   -1.196918   -0.132876
H     -0.403876   -1.447836    1.276745
H     -0.149751   -2.494111   -0.193604
H     -2.381669   -3.012768   -0.374185
H     -2.503655   -2.487175    1.354983
H     -3.470038   -0.454835    0.775780
H     -3.930320   -1.308455   -0.749710
H     -2.285901   -0.233359   -2.011767
H     -3.193408    3.173229   -1.257458
H      2.993447    1.051227   -1.658104
H      3.710600   -0.385100   -1.130763
H      1.750002    2.666041    1.172030
