30

C     -3.974978   -0.745137    0.601402
C     -3.317706   -0.015907   -0.575788
C     -1.858145   -0.375684   -0.660226
O     -1.506257   -1.438315   -1.242906
N     -0.875572    0.456117   -0.024945
C      0.550348    0.114551   -0.023060
C      1.391696    1.337030    0.386643
C      2.860963    1.072009    0.234534
C      3.728763    0.671078    1.225273
N      4.947325    0.466106    0.686652
C      4.784949    0.744205   -0.625095
N      3.525543    1.108448   -0.930369
C      0.794906   -1.039193    0.910166
O      0.325191   -1.022182    2.079880
O      1.570482   -2.115066    0.490010
N     -3.993522   -0.329413   -1.837632
H     -3.472743   -0.464094    1.551995
H     -5.045887   -0.460100    0.674635
H     -3.904544   -1.846403    0.470835
H     -3.404051    1.079171   -0.399001
H     -1.197864    1.316694    0.474139
H      0.846395   -0.178980   -1.055431
H      1.123252    2.199532   -0.261022
H      1.167918    1.624463    1.437641
H      3.489654    0.525402    2.270596
H      5.580961    0.671131   -1.354287
H      3.147762    1.351741   -1.872980
H      1.757129   -2.894019    1.109904
H     -4.966509    0.052843   -1.797909
H     -4.075458   -1.367302   -1.943655
