40

C      4.829154   -0.902580   -0.104120
C      3.688342   -1.173746   -1.087652
C      2.361928   -1.026866   -0.390818
O      1.687948   -2.058532   -0.122116
N      1.877706    0.271272   -0.011144
C      0.587357    0.451832    0.666114
C      0.442779    1.882919    1.226431
C      0.407453    2.938433    0.158906
O     -0.685736    3.249259   -0.385748
O      1.584135    3.563877   -0.241152
C     -0.555827    0.113063   -0.266772
O     -0.432817    0.356882   -1.498895
N     -1.799413   -0.422166    0.227099
C     -2.014773   -0.873642    1.593324
C     -3.474789   -1.302536    1.662401
C     -3.923184   -1.484073    0.215092
C     -2.960038   -0.644292   -0.624903
C     -3.582231    0.670768   -1.018398
O     -3.713432    1.589795   -0.166483
O     -4.053562    0.870084   -2.312644
N      3.766268   -0.249881   -2.219544
H      4.791119    0.145286    0.263484
H      5.807599   -1.068813   -0.602843
H      4.759486   -1.593256    0.763580
H      3.790574   -2.218181   -1.462621
H      2.488743    1.098205   -0.195358
H      0.569524   -0.238014    1.536338
H      1.291531    2.092081    1.912896
H     -0.486874    1.952038    1.831644
H      1.575850    4.271228   -0.966168
H     -1.349845   -1.737715    1.809927
H     -1.820019   -0.051121    2.313949
H     -4.078032   -0.497536    2.137156
H     -3.595613   -2.241513    2.245057
H     -4.988372   -1.191541    0.080737
H     -3.815094   -2.555196   -0.065411
H     -2.659428   -1.214048   -1.531931
H     -3.981359    0.145052   -3.016226
H      3.000411   -0.488917   -2.891407
H      4.662527   -0.427909   -2.729039
