27

C      2.886745   -0.490237   -0.022416
C      1.411722   -0.686854   -0.240970
C      0.936463   -1.653259   -1.016075
C     -0.538632   -1.581354   -1.166420
C     -0.970433   -0.594690   -0.071892
C      0.322443    0.220171    0.273756
C      0.420956    1.575205   -0.460316
C      0.452162    0.428864    1.796227
C     -2.227212    0.203203   -0.487335
C     -2.779125    1.003203    0.655496
O     -3.014564    2.193267    0.521566
H      3.086960    0.423891    0.571641
H      3.400531   -0.388977   -1.001583
H      3.302492   -1.365709    0.518854
H      1.562126   -2.369918   -1.539377
H     -0.777741   -1.200333   -2.183292
H     -0.998272   -2.582068   -1.016847
H     -1.251405   -1.217879    0.809866
H      0.310867    1.438006   -1.557700
H      1.407009    2.051162   -0.272254
H     -0.358880    2.278733   -0.103683
H      1.365373    1.009125    2.044880
H      0.505765   -0.547704    2.324356
H     -0.421647    0.991527    2.185528
H     -3.016621   -0.512731   -0.802434
H     -2.017866    0.857616   -1.360436
H     -2.999217    0.517741    1.600861
