18

C     -0.846022   -1.799822    0.311785
C     -1.918648   -0.748260    0.373658
O     -3.100968   -1.053899    0.682395
C     -1.568383    0.632275    0.017332
C     -0.310031    0.902874   -0.342371
C      0.701402   -0.221436   -0.436949
O      0.433243   -1.227004    0.531716
C      2.121372    0.309560   -0.227412
O      2.250412    0.857590    1.056227
O     -2.535617    1.635379    0.067369
H     -0.880914   -2.321267   -0.670469
H     -1.032608   -2.556364    1.102760
H     -0.028336    1.913754   -0.612980
H      0.655299   -0.656164   -1.462157
H      2.350639    1.082728   -0.995405
H      2.843064   -0.529021   -0.349502
H      3.185797    1.182121    1.123735
H     -2.319700    2.596959   -0.169733
