50

C     -0.411243   -2.254807   -1.137013
N      0.006890   -1.515516    0.066536
C      0.989775   -2.305431    0.835514
C      1.827670   -1.427259    1.783574
C      2.892781   -0.597108    1.086215
C      4.243228   -0.973425    1.301718
C      5.250702   -0.230608    0.703634
C      4.984904    0.835916   -0.080608
C      3.687812    1.252123   -0.339394
C      2.613451    0.542875    0.247937
C      1.254848    0.979008   -0.147444
O      0.990144    1.044245   -1.380023
C      0.249359    1.511254    0.842205
C     -1.174342    1.345436    0.335866
C     -1.844097    0.090772    0.320845
C     -1.171468   -1.150308    0.884150
C     -3.144570   -0.009270   -0.238563
C     -3.776954    1.149750   -0.759815
C     -3.095417    2.376902   -0.729478
C     -1.815197    2.469097   -0.199167
O     -5.070656    1.064097   -1.298865
C     -5.803053    2.154612   -1.849499
O     -3.751773   -1.282253   -0.253293
C     -5.016954   -1.624184   -0.808268
O      6.169261    1.378127   -0.541404
C      7.248726    0.599174   -0.008159
O      6.617439   -0.418292    0.780968
H      0.462307   -2.423846   -1.802543
H     -1.149001   -1.663430   -1.720048
H     -0.861240   -3.236766   -0.869399
H      0.469325   -3.093080    1.427200
H      1.697272   -2.830513    0.153870
H      2.315991   -2.124839    2.499178
H      1.212695   -0.795246    2.441499
H      4.506610   -1.822090    1.920486
H      3.515809    2.104091   -0.986167
H      0.352455    1.052776    1.838099
H      0.479183    2.586764    1.002017
H     -1.864659   -2.015067    0.974014
H     -0.895565   -0.924198    1.932596
H     -3.546351    3.276536   -1.124778
H     -1.317129    3.431040   -0.213297
H     -6.791063    1.788077   -2.195565
H     -5.258912    2.580536   -2.718786
H     -5.965560    2.935188   -1.076565
H     -5.036004   -1.394486   -1.894403
H     -5.829887   -1.092338   -0.270919
H     -5.178564   -2.714377   -0.683377
H      7.898691    1.232255    0.631573
H      7.832332    0.138087   -0.832366
