28

C      2.437890    2.008198   -0.593378
C      1.171361    1.422292   -0.760007
C      1.003816    0.102611   -0.341255
C      2.028741   -0.617194    0.222165
C      3.301224   -0.056539    0.401001
C      3.496480    1.273378   -0.017155
O      4.356053   -0.767323    0.971353
N      1.613038   -1.854317    0.556091
C      0.309491   -1.922381    0.202604
C     -0.102304   -0.723100   -0.367518
C     -1.488315   -0.382556   -0.833102
C     -2.254120    0.449061    0.216359
C     -3.572090    0.894957   -0.346600
O     -3.765951    2.111485   -0.612766
O     -4.575257   -0.037252   -0.596978
N     -2.485598   -0.306711    1.450555
H      2.602172    3.030395   -0.908509
H      0.355681    1.981617   -1.199452
H      4.465800    1.739554    0.104771
H      4.256655   -1.724832    1.283206
H      2.166439   -2.615120    1.007578
H     -0.314338   -2.792564    0.360450
H     -2.043433   -1.318717   -1.061897
H     -1.409350    0.194930   -1.780050
H     -1.655615    1.355541    0.463102
H     -5.466083    0.249597   -0.984581
H     -1.573550   -0.438417    1.944865
H     -2.858839   -1.256594    1.219148
