42

C     -1.944933    2.548549    0.649025
C     -2.051064    1.242107   -0.161302
C     -3.517561    0.738682   -0.149711
C     -3.702703   -0.734714   -0.578195
C     -2.459183   -1.386985   -1.119100
C     -1.226936   -1.049687   -0.691913
C     -1.032734    0.124218    0.264686
C      0.428426    0.651065    0.123997
C      1.539574   -0.431828    0.295765
C      1.113005   -1.812864   -0.297309
C     -0.024713   -1.717541   -1.313368
C      2.941750    0.073843   -0.221666
C      3.285963    1.447410    0.395634
C      4.080577   -0.896937    0.187647
O      2.922256    0.237861   -1.621318
C     -1.275346   -0.346885    1.721764
H     -2.713796    3.270823    0.300080
H     -0.958935    3.033226    0.499989
H     -2.110070    2.368452    1.730955
H     -1.821276    1.513421   -1.217853
H     -3.949635    0.860862    0.868474
H     -4.119213    1.388657   -0.823080
H     -4.047342   -1.331169    0.293695
H     -4.502574   -0.799092   -1.347017
H     -2.581581   -2.176109   -1.856145
H      0.539916    1.122143   -0.878013
H      0.600331    1.442398    0.883801
H      1.651156   -0.587404    1.393100
H      0.780939   -2.476787    0.530997
H      1.948866   -2.349412   -0.782027
H      0.304868   -1.131531   -2.198103
H     -0.278142   -2.745769   -1.654546
H      2.614431    2.241730    0.007883
H      4.320413    1.752251    0.126579
H      3.206170    1.413392    1.503713
H      4.002667   -1.881614   -0.311989
H      5.069185   -0.479364   -0.101114
H      4.078064   -1.059405    1.286954
H      2.886707   -0.658190   -2.044280
H     -2.329978   -0.641046    1.891534
H     -1.017687    0.452847    2.446638
H     -0.649862   -1.229603    1.965138
