45

C     -4.392691    2.106140   -0.249534
C     -3.068915    1.600985    0.370283
C     -3.116298    1.870619    1.893900
C     -2.940597    0.068667    0.135340
O     -4.049845   -0.605812    0.688152
P     -3.828472   -2.284181    0.474449
O     -2.646068   -2.756171    1.290343
O     -5.216754   -3.093767    1.002524
O     -3.564801   -2.644362   -1.158837
C     -1.871566    2.407260   -0.257740
C     -0.505424    1.946986    0.208341
O      0.042403    2.545570    1.174405
N      0.159687    0.832288   -0.406569
C      1.445028    0.346692    0.094543
C      1.907886   -0.882412   -0.691383
C      3.224383   -1.373960   -0.170468
O      3.247529   -2.301563    0.683667
N      4.444746   -0.762065   -0.607072
C      5.743266   -1.203244   -0.099337
C      6.876117   -0.382584   -0.714567
S      8.487360   -0.957308   -0.094048
O     -1.924041    2.476765   -1.663592
H     -4.443041    1.859173   -1.331446
H     -5.271229    1.640691    0.246793
H     -4.481742    3.208245   -0.137237
H     -3.999604    1.382472    2.359059
H     -2.206997    1.475521    2.394864
H     -3.183994    2.960486    2.100352
H     -2.886990   -0.135704   -0.955291
H     -2.002932   -0.289859    0.615899
H     -5.957893   -2.683210    0.489590
H     -4.359634   -2.285139   -1.627911
H     -1.978397    3.460146    0.087715
H     -0.297440    0.335969   -1.203602
H      1.339727    0.077999    1.168812
H      2.201985    1.156028    0.000076
H      2.011313   -0.622492   -1.767202
H      1.147370   -1.689162   -0.603318
H      4.392552    0.018194   -1.301622
H      5.888654   -2.276448   -0.350125
H      5.761947   -1.086764    1.006013
H      6.750218    0.691407   -0.459506
H      6.862168   -0.493900   -1.819618
H      8.238371   -0.495134    1.212688
H     -1.977346    1.559144   -2.027783
