50

C      5.802698    2.298932    0.653822
C      5.600006    1.229617   -0.423578
C      6.918847    0.905156   -1.131821
C      5.000833   -0.012378    0.173258
O      5.639468   -0.669285    1.041747
O      3.725919   -0.420541   -0.234620
C      3.087389   -1.604847    0.243589
C      3.680940   -2.832945   -0.439375
O      1.694907   -1.540088   -0.051886
C      0.842190   -0.585195    0.510798
O      1.286005    0.265118    1.331289
N     -0.541500   -0.582695    0.147637
C     -1.479494    0.390791    0.717083
C     -2.927142    0.259145    0.142944
C     -3.438578   -1.209607    0.358597
C     -4.929474   -1.282735    0.717302
C     -5.236471   -0.529891    2.023819
C     -4.367957    0.727077    2.228199
C     -3.838815    1.284776    0.899305
C     -2.875925    0.633025   -1.375664
C     -4.181145    0.482443   -2.105018
O     -4.502323   -0.629266   -2.604314
O     -5.033564    1.573931   -2.240730
H      6.195362    3.231909    0.195980
H      4.833690    2.534229    1.144261
H      6.521402    1.950050    1.426536
H      4.893709    1.634433   -1.181709
H      7.324104    1.817314   -1.619657
H      6.750754    0.137233   -1.917219
H      7.671874    0.522001   -0.409750
H      3.220341   -1.697257    1.345038
H      4.758776   -2.929663   -0.192333
H      3.568957   -2.747604   -1.541122
H      3.155282   -3.747730   -0.092683
H     -0.864188   -1.314267   -0.523734
H     -1.093521    1.415432    0.518601
H     -1.492668    0.254959    1.819391
H     -2.880931   -1.698163    1.189020
H     -3.252022   -1.830549   -0.544042
H     -5.232251   -2.346620    0.826682
H     -5.536047   -0.851471   -0.106420
H     -6.310147   -0.240868    2.020410
H     -5.082972   -1.214342    2.886647
H     -4.968879    1.509165    2.741048
H     -3.515580    0.483153    2.896982
H     -4.722861    1.561329    0.288420
H     -3.289978    2.232826    1.091992
H     -2.124205    0.011011   -1.905491
H     -2.538271    1.687210   -1.483941
H     -5.916543    1.485743   -2.729211
