35

C      3.771138    3.026775   -0.029097
C      3.387172    1.585612    0.067047
C      4.370971    0.597447    0.129600
C      3.986532   -0.739264    0.216380
O      4.879505   -1.627568    0.270638
C      2.613978   -1.070027    0.240545
C      2.151332   -2.400851    0.320231
C      0.777301   -2.659971    0.331261
C     -0.157214   -1.615576    0.266677
C      0.286764   -0.280590    0.198832
C      1.674377   -0.008692    0.178465
O      2.102184    1.250177    0.092828
C     -0.721099    0.814392    0.175437
O     -0.374110    1.984574    0.489083
C     -2.152176    0.509230   -0.101060
C     -2.590165   -0.829335    0.030100
C     -1.608257   -1.912199    0.272380
O     -2.008375   -3.093646    0.465107
C     -3.958457   -1.132036   -0.079048
C     -4.889981   -0.126914   -0.332250
C     -4.459363    1.189191   -0.510420
C     -3.101514    1.514264   -0.433206
O     -2.743084    2.831612   -0.728970
O     -6.242616   -0.449394   -0.419399
O      3.047075   -3.469367    0.385851
H      4.367501    3.196351   -0.950169
H      4.373604    3.315358    0.857773
H      2.863312    3.665246   -0.068022
H      5.421150    0.865423    0.109536
H      0.440349   -3.687866    0.386219
H     -4.308980   -2.150784    0.032460
H     -5.181091    1.963118   -0.741034
H     -1.802419    3.118690   -0.959843
H     -6.944957    0.256735   -0.606572
H      2.729611   -4.430111    0.442641
