18

C      1.992825   -1.033580   -0.242104
C      2.274127    0.329508   -0.231169
C      1.237977    1.257940   -0.128369
C     -0.104047    0.837013   -0.022427
C     -0.389966   -0.558264   -0.070525
C      0.672557   -1.475270   -0.165723
C     -1.771728   -1.096269   -0.046612
O     -2.681488   -0.544059   -0.719075
O     -2.080342   -2.238019    0.690043
C     -1.196082    1.881299    0.120593
F     -0.677397    3.109024    0.496382
F     -1.848549    2.036134   -1.088458
F     -2.105731    1.498578    1.090450
H      2.799273   -1.750919   -0.324283
H      3.299338    0.669369   -0.303234
H      1.494196    2.309561   -0.126465
H      0.479794   -2.540139   -0.210431
H     -1.394759   -2.691908    1.281410
