38

C      3.348005   -1.390932    0.602022
C      4.745207   -1.441993    0.611155
C      5.493092   -0.256853    0.613910
C      4.836376    0.977864    0.606486
C      3.439294    1.031649    0.597366
C      2.684206   -0.152835    0.600688
C      1.177368   -0.091284    0.562356
C      0.654729    0.166949   -0.867050
C      0.916068   -0.976174   -1.813116
O      0.802671   -2.172097   -1.430659
O      1.245200   -0.705502   -3.137519
N     -0.772953    0.506777   -0.853144
C     -1.818464   -0.374265   -0.405594
O     -1.544619   -1.533644    0.007676
C     -3.253531    0.096867   -0.396873
C     -3.733336    0.303233    1.049212
C     -5.111073    0.897269    1.085936
O     -5.255464    2.147054    1.017981
N     -6.261536    0.054944    1.156150
N     -4.119723   -0.855241   -1.098494
O      6.885535   -0.295508    0.622762
H      2.785164   -2.315920    0.596154
H      5.245154   -2.402205    0.614325
H      5.409231    1.896484    0.605457
H      2.945239    1.995392    0.585385
H      0.748328   -1.027816    0.977926
H      0.836210    0.733511    1.226005
H      1.203301    1.050720   -1.264297
H      1.411774   -1.457399   -3.795590
H     -1.040411    1.458879   -1.191222
H     -3.315818    1.074212   -0.925336
H     -3.729307   -0.664315    1.597450
H     -3.034565    0.988958    1.577624
H     -7.219107    0.471016    1.168050
H     -6.160862   -0.983696    1.192277
H     -3.777101   -0.958560   -2.081675
H     -4.054972   -1.794688   -0.642175
H      7.390690   -1.173947    0.628387
