39

C     -2.374485    0.570182    2.166364
C     -3.300391   -0.358998    1.378347
C     -3.060704   -0.342716   -0.156671
C     -4.323998   -0.894905   -0.848708
C     -1.803300   -1.171594   -0.574754
C     -1.609530   -1.260714   -2.068504
O     -1.796931   -0.254195   -2.804224
O     -1.165104   -2.451792   -2.632893
N     -0.568398   -0.674594    0.043862
C      0.039286    0.597611   -0.249464
O     -0.573174    1.456732   -0.938449
C      1.427400    0.910458    0.246214
C      2.445790    0.000697   -0.466176
C      3.857150    0.425791   -0.188380
C      4.740744   -0.176895    0.678115
N      5.895470    0.518665    0.684377
C      5.679233    1.534371   -0.179240
N      4.448052    1.505419   -0.722615
N      1.488632    0.725200    1.698363
H     -2.803595    0.747693    3.175205
H     -2.265551    1.550816    1.657949
H     -1.380506    0.105140    2.314201
H     -3.209309   -1.394215    1.773792
H     -4.339095   -0.020692    1.589544
H     -2.946680    0.710237   -0.491089
H     -4.237273   -0.839871   -1.953288
H     -4.497762   -1.953346   -0.554860
H     -5.215521   -0.294644   -0.565413
H     -1.967271   -2.211816   -0.212378
H     -1.007783   -2.524477   -3.630406
H     -0.054670   -1.329251    0.676418
H      1.660690    1.974135    0.003996
H      2.304030   -1.055119   -0.147636
H      2.282404    0.046346   -1.565301
H      4.558020   -1.063207    1.271278
H      6.417270    2.291910   -0.407236
H      4.041814    2.182238   -1.406133
H      2.422879    1.050132    2.037632
H      0.792169    1.369270    2.139620
