32

C     -3.788092    2.902774   -0.787523
C     -2.489106    2.225293   -0.379804
O     -2.667859    0.829450   -0.417105
P     -1.267364    0.074572    0.209523
S     -1.390123   -0.009785    1.935478
O     -1.114689   -1.500889   -0.433012
C     -2.396331   -2.069541   -0.559146
C     -2.254011   -3.523025   -0.983072
O      0.136715    0.980733   -0.224171
C      1.463183    0.595938    0.026254
C      2.482493    1.469129   -0.368324
C      3.824407    1.145963   -0.149703
C      4.173733   -0.065834    0.471611
C      3.151079   -0.944086    0.867565
C      1.809010   -0.619147    0.648020
N      5.554054   -0.404350    0.699585
O      6.466682    0.372619    0.349575
O      5.891629   -1.591669    1.308057
H     -4.073594    2.591139   -1.814741
H     -4.599802    2.622935   -0.082843
H     -3.658932    4.005599   -0.768575
H     -1.698844    2.534988   -1.099323
H     -2.226341    2.574674    0.644960
H     -2.948923   -2.046709    0.407902
H     -2.981985   -1.538266   -1.341995
H     -1.721984   -3.585178   -1.956149
H     -1.680424   -4.087414   -0.217394
H     -3.258904   -3.983008   -1.091997
H      2.232057    2.406812   -0.848414
H      4.588167    1.844320   -0.466974
H      3.387791   -1.884610    1.348017
H      1.056308   -1.323425    0.968250
