13

C     -1.082357   -0.459217   -0.001813
C     -0.006095   -1.357939    0.000477
C      1.315239   -0.880900    0.002720
C      1.560558    0.503180    0.002669
C      0.483813    1.407843    0.000375
C     -0.838785    0.928421   -0.001868
Cl    -2.185288    2.069400   -0.004740
Cl     0.793354    3.146183    0.000317
Cl     3.220276    1.104962    0.005488
Cl     2.663772   -2.019771    0.005599
Cl    -0.333316   -3.090545    0.000506
O     -2.383400   -0.969095   -0.004005
H     -3.207769   -0.382522   -0.005726
