15

C     -1.242241   -1.293419   -0.113875
C     -2.114710   -0.205759   -0.053302
C     -1.607019    1.093605   -0.002349
C     -0.225000    1.311260   -0.009018
C      0.666981    0.218941   -0.061175
C      0.140243   -1.085475   -0.119830
C      2.134366    0.437986   -0.075914
O      2.605344    1.517009   -0.523676
O      3.019960   -0.526613    0.402972
F      0.235662    2.586329    0.058680
H     -1.637481   -2.299927   -0.162731
H     -3.184606   -0.369555   -0.049119
H     -2.286797    1.934732    0.044591
H      0.790177   -1.946794   -0.196203
H      2.705121   -1.372319    0.860948
