30

C      0.242506    0.819014    0.392746
C     -0.877234    1.868757    0.165835
C     -2.272932    1.235775    0.240874
C     -2.402543    0.031973   -0.713105
C     -1.248536   -1.011273   -0.594002
N      0.071286   -0.312122   -0.561237
C      1.298799   -1.041109   -0.994220
C      2.396452   -0.999241    0.083791
C      2.784673    0.449636    0.468326
C      1.645748    1.469831    0.223415
F      1.772503    1.985100   -1.058275
F      1.792678    2.521696    1.114581
F      3.895280    0.840086   -0.264906
F      3.143879    0.473993    1.807791
F      1.945982   -1.672029    1.208195
F      3.515661   -1.669958   -0.383610
F      1.777328   -0.449741   -2.150982
F      1.042085   -2.367812   -1.299219
C     -1.452192   -2.019849    0.582661
F     -1.614022   -1.399300    1.801854
F     -0.385454   -2.888177    0.688298
F     -2.579634   -2.786851    0.345121
F     -1.317267   -1.762140   -1.760689
F     -2.410706    0.519528   -2.012228
F     -3.629156   -0.575486   -0.499218
F     -3.209350    2.189978   -0.124428
F     -2.556835    0.867685    1.543412
F     -0.730572    2.464650   -1.077662
F     -0.797153    2.860398    1.130708
F      0.158723    0.356987    1.696174
