42

C     -4.743297   -0.095523    0.376869
C     -3.889486   -0.089502    1.660402
C     -2.382971   -0.331126    1.364300
C     -1.973931    0.112113   -0.069541
C     -2.784986    1.335092   -0.525326
C     -4.314498    1.031304   -0.611501
C     -4.680054    0.595055   -2.014145
O     -5.770475    0.964254   -2.529154
O     -3.849109   -0.269599   -2.722335
O     -5.031610    2.213177   -0.330919
O     -0.580652    0.423392   -0.136424
C      0.428309   -0.545825   -0.114422
O      0.136626   -1.772947   -0.063933
C      1.832848   -0.107000   -0.150259
C      2.854987   -0.974623   -0.152111
C      4.281342   -0.568014   -0.197651
C      5.235260   -1.507726   -0.624275
C      6.591542   -1.172581   -0.674500
C      7.015566    0.104551   -0.288011
C      6.077252    1.041633    0.152603
C      4.719403    0.710833    0.203663
O      8.364273    0.450086   -0.334186
O     -1.623981    0.361782    2.325195
O     -4.372745   -1.031431    2.585649
H     -4.638763   -1.095642   -0.102434
H     -5.816607    0.026263    0.642647
H     -4.001503    0.912248    2.129735
H     -2.179201   -1.426174    1.441634
H     -2.184789   -0.719465   -0.778304
H     -2.597624    2.158041    0.199880
H     -2.401084    1.695208   -1.505839
H     -4.097517   -0.584563   -3.652423
H     -4.864544    2.463515    0.614748
H      2.011861    0.957704   -0.200813
H      2.640583   -2.037279   -0.162041
H      4.928870   -2.501578   -0.927740
H      7.311636   -1.906766   -1.012843
H      6.401700    2.026709    0.463422
H      4.027670    1.451408    0.579608
H      9.068825   -0.207378   -0.647628
H     -0.799504   -0.166649    2.488496
H     -4.349620   -1.922977    2.148798
