43

C      0.657945    0.804994    4.333614
C     -0.063172    1.768809    3.445117
C     -0.635926    1.527732    2.208353
C     -0.765113    0.400758    1.389542
C     -1.523104    0.550935    0.196679
C     -1.729500   -0.519559   -0.693601
C     -2.469189   -0.344047   -1.869139
C     -3.012751    0.920152   -2.164442
C     -2.818227    1.995682   -1.295070
C     -2.081140    1.829619   -0.119596
N     -1.900814    2.894100    0.717528
C     -1.188172    2.727188    1.855749
N     -0.963290    3.666123    2.789548
N     -0.269068    3.071270    3.752659
O     -2.640040   -1.450099   -2.715166
C     -3.366345   -1.422957   -3.940138
N     -0.139100   -0.841892    1.734251
C      1.301547   -1.020497    1.567563
C      1.612820   -1.549801    0.170862
O      3.007879   -1.734605    0.044932
C      3.346941   -2.048374   -1.293516
C      3.789925   -0.790824   -2.036663
O      4.165905   -1.127078   -3.342590
H      0.660067    1.182741    5.377671
H      0.152420   -0.182507    4.323149
H      1.708200    0.695823    3.995123
H     -1.320684   -1.499664   -0.487988
H     -3.588683    1.082361   -3.065427
H     -3.243135    2.961807   -1.538854
H      0.047443    3.553464    4.622933
H     -3.335924   -2.431342   -4.402664
H     -2.904308   -0.695982   -4.642282
H     -4.426415   -1.151233   -3.749422
H     -0.733248   -1.699910    1.779326
H      1.669050   -1.740348    2.330188
H      1.830198   -0.053798    1.715606
H      1.085640   -2.521060    0.029635
H      1.237249   -0.811223   -0.574250
H      4.200090   -2.759478   -1.271291
H      2.527031   -2.556985   -1.855395
H      2.953448   -0.058755   -2.069394
H      4.650440   -0.330209   -1.501552
H      4.513111   -0.291330   -3.751589
